@<TRIPOS>MOLECULE
10b-b3lyp.log
 36 38 0 0 0
SMALL
USER_CHARGES
****
Gaussian 16 #p b3lyp/6-311g(d,p) pop=(chelpg,readradii)
@<TRIPOS>ATOM
      1 C          -0.5929    2.1344    1.1071 C.ar    1  UNL1       -0.1278
      2 C          -1.1068    2.0690   -0.1904 C.ar    1  UNL1        0.3058
      3 C          -0.8081    3.0877   -1.0961 C.ar    1  UNL1       -0.1760
      4 C          -0.0015    4.1539   -0.7072 C.ar    1  UNL1       -0.1833
      5 C           0.5430    4.2219    0.5788 C.ar    1  UNL1        0.2043
      6 C           0.2310    3.1924    1.4747 C.ar    1  UNL1       -0.2184
      7 N          -1.9828    1.0194   -0.5988 N.pl3   1  UNL1       -0.5697
      8 C          -1.9367   -0.2893   -0.2214 C.2     1  UNL1        0.3248
      9 C          -3.0080   -1.1287   -0.1048 C.2     1  UNL1       -0.2638
     10 C          -0.7413   -1.1147    0.0088 C.2     1  UNL1        0.1726
     11 C          -2.5655   -2.4576    0.2674 C.2     1  UNL1        0.6858
     12 O          -1.1595   -2.3813    0.3555 O.3     1  UNL1       -0.3563
     13 CL         -4.6654   -0.7084   -0.3316 Cl      1  UNL1       -0.0567
     14 O          -3.1495   -3.4747    0.5019 O.2     1  UNL1       -0.4846
     15 C           0.5533   -0.7837   -0.1647 C.2     1  UNL1       -0.2555
     16 C           1.7451   -1.6085   -0.0192 C.ar    1  UNL1        0.2272
     17 C           1.4561    5.3528    0.9838 C.3     1  UNL1       -0.2370
     18 C           1.7176   -2.9285    0.4826 C.ar    1  UNL1       -0.1433
     19 C           2.8755   -3.6798    0.6231 C.ar    1  UNL1       -0.1050
     20 C           4.1103   -3.1425    0.2638 C.ar    1  UNL1       -0.0978
     21 C           4.1780   -1.8464   -0.2376 C.ar    1  UNL1       -0.0672
     22 C           3.0148   -1.0986   -0.3729 C.ar    1  UNL1       -0.0081
     23 CL          3.1897    0.5335   -1.0218 Cl      1  UNL1       -0.1401
     24 H           0.7253    0.2401   -0.4627 H       1  UNL1        0.1249
     25 H          -0.8417    1.3637    1.8269 H       1  UNL1        0.0912
     26 H          -1.2026    3.0389   -2.1051 H       1  UNL1        0.1194
     27 H           0.2168    4.9391   -1.4234 H       1  UNL1        0.1256
     28 H           0.6240    3.2265    2.4856 H       1  UNL1        0.1305
     29 H          -2.8924    1.3206   -0.9242 H       1  UNL1        0.3204
     30 H           1.3144    5.6227    2.0331 H       1  UNL1        0.0615
     31 H           2.5071    5.0708    0.8586 H       1  UNL1        0.0895
     32 H           1.2806    6.2440    0.3777 H       1  UNL1        0.0614
     33 H           0.7666   -3.3564    0.7623 H       1  UNL1        0.1275
     34 H           2.8123   -4.6888    1.0133 H       1  UNL1        0.1090
     35 H           5.0183   -3.7248    0.3695 H       1  UNL1        0.1040
     36 H           5.1265   -1.4117   -0.5253 H       1  UNL1        0.1051
@<TRIPOS>BOND
     1    26     3    1
     2    27     4    1
     3     3     4   ar
     4     3     2   ar
     5    23    22    1
     6    29     7    1
     7     4     5   ar
     8     7     8    1
     9     7     2    1
    10    36    21    1
    11    24    15    1
    12    22    21   ar
    13    22    16   ar
    14    13     9    1
    15    21    20   ar
    16     8     9    2
    17     8    10    1
    18     2     1   ar
    19    15    16    1
    20    15    10    2
    21     9    11    1
    22    16    18   ar
    23    10    12    1
    24    20    35    1
    25    20    19   ar
    26    11    12    1
    27    11    14    2
    28    32    17    1
    29    18    19   ar
    30    18    33    1
    31     5    17    1
    32     5     6   ar
    33    19    34    1
    34    31    17    1
    35    17    30    1
    36     1     6   ar
    37     1    25    1
    38     6    28    1
