@<TRIPOS>MOLECULE
10c-b3lyp.log
 38 40 0 0 0
SMALL
USER_CHARGES
****
Gaussian 16 #p b3lyp/6-311g(d,p) pop=(chelpg,readradii)
@<TRIPOS>ATOM
      1 C          -2.1348    1.8298    1.0637 C.ar    1  UNL1       -0.1298
      2 C          -2.5291    1.3460   -0.1874 C.ar    1  UNL1        0.3193
      3 C          -3.1036    2.2220   -1.1087 C.ar    1  UNL1       -0.1501
      4 C          -3.2804    3.5646   -0.7806 C.ar    1  UNL1       -0.2237
      5 C          -2.8760    4.0691    0.4585 C.ar    1  UNL1        0.1836
      6 C          -2.2961    3.1763    1.3693 C.ar    1  UNL1       -0.2032
      7 N          -2.4112   -0.0342   -0.5280 N.pl3   1  UNL1       -0.5575
      8 C          -1.3976   -0.8840   -0.2032 C.2     1  UNL1        0.3284
      9 C          -1.5016   -2.2339   -0.0248 C.2     1  UNL1       -0.3071
     10 C           0.0374   -0.5670   -0.1127 C.2     1  UNL1        0.1685
     11 C          -0.1958   -2.8043    0.2508 C.2     1  UNL1        0.6932
     12 O           0.7120   -1.7181    0.2159 O.3     1  UNL1       -0.3337
     13 BR         -3.0807   -3.2483   -0.0983 Br      1  UNL1        0.0044
     14 O           0.1743   -3.9133    0.4916 O.2     1  UNL1       -0.4802
     15 C           0.6638    0.5946   -0.3809 C.2     1  UNL1       -0.2553
     16 C           2.0901    0.8998   -0.3813 C.ar    1  UNL1        0.2381
     17 C          -3.0766    5.5204    0.8200 C.3     1  UNL1       -0.1882
     18 C           2.4791    2.2001   -0.7605 C.ar    1  UNL1       -0.1785
     19 C           3.8154    2.5817   -0.7918 C.ar    1  UNL1       -0.0489
     20 C           4.8106    1.6757   -0.4405 C.ar    1  UNL1       -0.1202
     21 C           4.4219    0.3938   -0.0628 C.ar    1  UNL1        0.0015
     22 C           3.0975   -0.0162   -0.0257 C.ar    1  UNL1       -0.1425
     23 N           5.4763   -0.5800    0.3187 N.pl3   1  UNL1        0.6836
     24 O           6.6403   -0.2015    0.2621 O.2     1  UNL1       -0.4117
     25 O           5.1221   -1.6965    0.6668 O.2     1  UNL1       -0.3927
     26 H           0.0164    1.4217   -0.6410 H       1  UNL1        0.0980
     27 H          -1.7077    1.1537    1.7948 H       1  UNL1        0.0899
     28 H          -3.4025    1.8523   -2.0833 H       1  UNL1        0.1183
     29 H          -3.7308    4.2308   -1.5088 H       1  UNL1        0.1325
     30 H          -1.9816    3.5358    2.3438 H       1  UNL1        0.1307
     31 H          -3.2808   -0.5012   -0.7531 H       1  UNL1        0.2862
     32 H          -3.8904    5.6355    1.5435 H       1  UNL1        0.0563
     33 H          -2.1775    5.9460    1.2736 H       1  UNL1        0.0610
     34 H          -3.3282    6.1185   -0.0579 H       1  UNL1        0.0628
     35 H           1.7139    2.9177   -1.0359 H       1  UNL1        0.1095
     36 H           4.0842    3.5879   -1.0900 H       1  UNL1        0.1010
     37 H           5.8587    1.9390   -0.4527 H       1  UNL1        0.1275
     38 H           2.8612   -1.0257    0.2735 H       1  UNL1        0.1290
@<TRIPOS>BOND
     1    28     3    1
     2    29     4    1
     3     3     4   ar
     4     3     2   ar
     5    36    19    1
     6    35    18    1
     7    19    18   ar
     8    19    20   ar
     9     4     5   ar
    10    18    16   ar
    11    31     7    1
    12    26    15    1
    13     7     8    1
    14     7     2    1
    15    37    20    1
    16    20    21   ar
    17    16    15    1
    18    16    22   ar
    19    15    10    2
    20     8    10    1
    21     8     9    2
    22     2     1   ar
    23    10    12    1
    24    13     9    1
    25    21    22   ar
    26    21    23    1
    27    34    17    1
    28    22    38    1
    29     9    11    1
    30    12    11    1
    31    11    14    2
    32    24    23    2
    33    23    25    2
    34     5    17    1
    35     5     6   ar
    36    17    33    1
    37    17    32    1
    38     1     6   ar
    39     1    27    1
    40     6    30    1
