@<TRIPOS>MOLECULE
8b-b3lyp.log
 22 23 0 0 0
SMALL
USER_CHARGES
****
Gaussian 16 #p b3lyp/6-311g(d,p) pop=(chelpg,readradii)
@<TRIPOS>ATOM
      1 C           2.2499   -0.9263   -0.5400 C.ar    1  UNL1       -0.2606
      2 C           1.7388    0.3017   -0.1066 C.ar    1  UNL1        0.3725
      3 C           2.6165    1.2603    0.4183 C.ar    1  UNL1       -0.2715
      4 C           3.9761    0.9895    0.5177 C.ar    1  UNL1       -0.0104
      5 C           4.4821   -0.2440    0.1090 C.ar    1  UNL1       -0.1644
      6 C           3.6118   -1.1947   -0.4179 C.ar    1  UNL1       -0.0206
      7 N           0.3733    0.6487   -0.2147 N.pl3   1  UNL1       -0.5334
      8 C          -0.7360   -0.1256   -0.0793 C.2     1  UNL1        0.2441
      9 C          -2.0200    0.3024   -0.0674 C.2     1  UNL1       -0.2882
     10 C          -0.7687   -1.6199    0.1281 C.3     1  UNL1        0.2530
     11 C          -2.9332   -0.8112    0.1760 C.2     1  UNL1        0.7409
     12 O          -2.1475   -1.9485    0.3017 O.3     1  UNL1       -0.4583
     13 CL         -2.5479    1.9394   -0.2417 Cl      1  UNL1       -0.0601
     14 O          -4.1258   -0.8433    0.2744 O.2     1  UNL1       -0.5105
     15 H           1.6061   -1.6621   -1.0009 H       1  UNL1        0.1238
     16 H           2.2261    2.2144    0.7571 H       1  UNL1        0.1348
     17 H           4.6397    1.7429    0.9262 H       1  UNL1        0.0936
     18 H           5.5407   -0.4575    0.1934 H       1  UNL1        0.1097
     19 H           3.9929   -2.1511   -0.7571 H       1  UNL1        0.0949
     20 H           0.1817    1.6425   -0.2196 H       1  UNL1        0.3321
     21 H          -0.3967   -2.1722   -0.7377 H       1  UNL1        0.0485
     22 H          -0.2069   -1.9270    1.0149 H       1  UNL1        0.0301
@<TRIPOS>BOND
     1    15     1    1
     2    19     6    1
     3    21    10    1
     4     1     6   ar
     5     1     2   ar
     6     6     5   ar
     7    13     9    1
     8    20     7    1
     9     7     2    1
    10     7     8    1
    11     2     3   ar
    12     8     9    2
    13     8    10    1
    14     9    11    1
    15     5    18    1
    16     5     4   ar
    17    10    12    1
    18    10    22    1
    19    11    14    2
    20    11    12    1
    21     3     4   ar
    22     3    16    1
    23     4    17    1
