@<TRIPOS>MOLECULE
8c-b3lyp.log
 26 27 0 0 0
SMALL
USER_CHARGES
****
Gaussian 16 #p b3lyp/6-311g(d,p) pop=(chelpg,readradii)
@<TRIPOS>ATOM
      1 C          -1.6411   -1.3224    0.8924 C.ar    1  UNL1       -0.1416
      2 C          -0.8796   -0.6267   -0.0557 C.ar    1  UNL1        0.2594
      3 C          -1.5152    0.2809   -0.8992 C.ar    1  UNL1       -0.2238
      4 C          -2.8853    0.5223   -0.7877 C.ar    1  UNL1       -0.2320
      5 C          -3.6388   -0.1764    0.1595 C.ar    1  UNL1        0.3966
      6 C          -3.0061   -1.1087    0.9929 C.ar    1  UNL1       -0.2405
      7 N           0.5186   -0.8862   -0.1698 N.pl3   1  UNL1       -0.4996
      8 C           1.5145    0.0177   -0.0078 C.2     1  UNL1        0.2340
      9 C           2.8503   -0.1792   -0.0952 C.2     1  UNL1       -0.2920
     10 C           1.3015    1.4627    0.3686 C.3     1  UNL1        0.2695
     11 C           3.5706    1.0540    0.2069 C.2     1  UNL1        0.7298
     12 O           2.6111    2.0229    0.4772 O.3     1  UNL1       -0.4523
     13 CL          3.6364   -1.6752   -0.4673 Cl      1  UNL1       -0.0680
     14 O           4.7438    1.2922    0.2439 O.2     1  UNL1       -0.5128
     15 O          -4.9784   -0.0291    0.3451 O.3     1  UNL1       -0.3841
     16 C          -5.6853    0.8970   -0.4728 C.3     1  UNL1        0.1357
     17 H          -1.1542   -2.0293    1.5550 H       1  UNL1        0.1247
     18 H          -0.9468    0.7897   -1.6686 H       1  UNL1        0.1470
     19 H          -3.3490    1.2352   -1.4557 H       1  UNL1        0.1437
     20 H          -3.6033   -1.6440    1.7209 H       1  UNL1        0.1411
     21 H           0.8084   -1.8476   -0.2895 H       1  UNL1        0.3180
     22 H           0.7430    2.0221   -0.3848 H       1  UNL1        0.0299
     23 H           0.7848    1.5551    1.3288 H       1  UNL1        0.0159
     24 H          -5.6250    0.6204   -1.5306 H       1  UNL1        0.0178
     25 H          -6.7222    0.8487   -0.1459 H       1  UNL1        0.0663
     26 H          -5.3091    1.9164   -0.3368 H       1  UNL1        0.0169
@<TRIPOS>BOND
     1    18     3    1
     2    24    16    1
     3    19     4    1
     4     3     4   ar
     5     3     2   ar
     6     4     5   ar
     7    16    26    1
     8    16    25    1
     9    16    15    1
    10    13     9    1
    11    22    10    1
    12    21     7    1
    13     7     2    1
    14     7     8    1
    15     9     8    2
    16     9    11    1
    17     2     1   ar
    18     8    10    1
    19     5    15    1
    20     5     6   ar
    21    11    14    2
    22    11    12    1
    23    10    12    1
    24    10    23    1
    25     1     6   ar
    26     1    17    1
    27     6    20    1
