@<TRIPOS>MOLECULE
8d-b3lyp.log
 22 23 0 0 0
SMALL
USER_CHARGES
****
Gaussian 16 #p b3lyp/6-311g(d,p) pop=(chelpg,readradii)
@<TRIPOS>ATOM
      1 C          -0.7534   -0.8813   -0.0025 C.ar    1  UNL1       -0.2832
      2 C          -0.1896    0.4003    0.0007 C.ar    1  UNL1        0.3442
      3 C          -1.0499    1.5101    0.0034 C.ar    1  UNL1       -0.3079
      4 C          -2.4281    1.3506    0.0030 C.ar    1  UNL1        0.0419
      5 C          -2.9706    0.0679   -0.0000 C.ar    1  UNL1       -0.0348
      6 C          -2.1374   -1.0433   -0.0027 C.ar    1  UNL1        0.0170
      7 N           1.1896    0.6670    0.0013 N.pl3   1  UNL1       -0.4569
      8 C           2.2808   -0.1460    0.0005 C.2     1  UNL1        0.1914
      9 C           3.5713    0.2636   -0.0006 C.2     1  UNL1       -0.2813
     10 C           2.3009   -1.6552    0.0018 C.3     1  UNL1        0.3235
     11 C           4.4783   -0.8816    0.0009 C.2     1  UNL1        0.7483
     12 O           3.6803   -2.0173    0.0021 O.3     1  UNL1       -0.4783
     13 CL          4.1177    1.9027   -0.0025 Cl      1  UNL1       -0.0573
     14 O           5.6734   -0.9380   -0.0002 O.2     1  UNL1       -0.5066
     15 BR         -4.8700   -0.1630   -0.0005 Br      1  UNL1       -0.0833
     16 H          -0.1413   -1.7695   -0.0049 H       1  UNL1        0.1409
     17 H          -0.6342    2.5125    0.0059 H       1  UNL1        0.1558
     18 H          -3.0726    2.2199    0.0051 H       1  UNL1        0.0791
     19 H          -2.5567   -2.0410   -0.0052 H       1  UNL1        0.0834
     20 H           1.4255    1.6515    0.0013 H       1  UNL1        0.3135
     21 H           1.8285   -2.0751    0.8944 H       1  UNL1        0.0252
     22 H           1.8290   -2.0765   -0.8903 H       1  UNL1        0.0254
@<TRIPOS>BOND
     1    22    10    1
     2    19     6    1
     3    16     1    1
     4     6     1   ar
     5     6     5   ar
     6     1     2   ar
     7    13     9    1
     8     9     8    2
     9     9    11    1
    10    15     5    1
    11    14    11    2
    12     5     4   ar
    13     8     7    1
    14     8    10    1
    15     2     7    1
    16     2     3   ar
    17    11    12    1
    18    20     7    1
    19    10    12    1
    20    10    21    1
    21     4     3   ar
    22     4    18    1
    23     3    17    1
