@<TRIPOS>MOLECULE
8e-b3lyp.log
 25 26 0 0 0
SMALL
USER_CHARGES
****
Gaussian 16 #p b3lyp/6-311g(d,p) pop=(chelpg,readradii)
@<TRIPOS>ATOM
      1 C          -2.3458    0.6226    0.8654 C.ar    1  UNL1       -0.2344
      2 C          -1.6972   -0.3432    0.0948 C.ar    1  UNL1        0.3245
      3 C          -2.4611   -1.1894   -0.7170 C.ar    1  UNL1       -0.2078
      4 C          -3.8437   -1.0600   -0.7591 C.ar    1  UNL1       -0.1502
      5 C          -4.5072   -0.0777   -0.0128 C.ar    1  UNL1        0.1584
      6 C          -3.7313    0.7574    0.7943 C.ar    1  UNL1       -0.1650
      7 N          -0.2896   -0.5255    0.1472 N.pl3   1  UNL1       -0.4965
      8 C           0.6746    0.4197    0.0215 C.2     1  UNL1        0.2307
      9 C           2.0160    0.2362    0.0009 C.2     1  UNL1       -0.3124
     10 C           0.4244    1.8938   -0.1876 C.3     1  UNL1        0.2761
     11 C           2.7026    1.5040   -0.2338 C.2     1  UNL1        0.7336
     12 O           1.7179    2.4783   -0.3442 O.3     1  UNL1       -0.4509
     13 BR          2.9085   -1.4144    0.1710 Br      1  UNL1       -0.0184
     14 O           3.8674    1.7636   -0.3336 O.2     1  UNL1       -0.5198
     15 C          -6.0091    0.0568   -0.0735 C.3     1  UNL1       -0.2248
     16 H          -1.7812    1.2478    1.5453 H       1  UNL1        0.1379
     17 H          -1.9660   -1.9411   -1.3225 H       1  UNL1        0.1279
     18 H          -4.4161   -1.7276   -1.3952 H       1  UNL1        0.1206
     19 H          -4.2161    1.5161    1.3995 H       1  UNL1        0.1251
     20 H           0.0441   -1.4806    0.1173 H       1  UNL1        0.2895
     21 H          -0.1717    2.0788   -1.0864 H       1  UNL1        0.0155
     22 H          -0.0667    2.3685    0.6637 H       1  UNL1        0.0314
     23 H          -6.5025   -0.8412    0.3112 H       1  UNL1        0.0700
     24 H          -6.3562    0.9066    0.5171 H       1  UNL1        0.0706
     25 H          -6.3529    0.2001   -1.1021 H       1  UNL1        0.0683
@<TRIPOS>BOND
     1    18     4    1
     2    17     3    1
     3    25    15    1
     4    21    10    1
     5     4     3   ar
     6     4     5   ar
     7     3     2   ar
     8    12    11    1
     9    12    10    1
    10    14    11    2
    11    11     9    1
    12    10     8    1
    13    10    22    1
    14    15     5    1
    15    15    23    1
    16    15    24    1
    17     5     6   ar
    18     9     8    2
    19     9    13    1
    20     8     7    1
    21     2     7    1
    22     2     1   ar
    23    20     7    1
    24     6     1   ar
    25     6    19    1
    26     1    16    1
