@<TRIPOS>MOLECULE
8f-b3lyp.log
 22 23 0 0 0
SMALL
USER_CHARGES
****
Gaussian 16 #p b3lyp/6-311g(d,p) pop=(chelpg,readradii)
@<TRIPOS>ATOM
      1 C           2.7531    0.7894   -0.6903 C.ar    1  UNL1       -0.2765
      2 C           2.0978   -0.2884   -0.0861 C.ar    1  UNL1        0.3847
      3 C           2.8512   -1.2636    0.5799 C.ar    1  UNL1       -0.2477
      4 C           4.2356   -1.1533    0.6503 C.ar    1  UNL1       -0.0331
      5 C           4.8868   -0.0640    0.0726 C.ar    1  UNL1       -0.1314
      6 C           4.1384    0.9024   -0.5950 C.ar    1  UNL1       -0.0289
      7 N           0.6956   -0.4649   -0.1635 N.pl3   1  UNL1       -0.5278
      8 C          -0.2914    0.4601   -0.0418 C.2     1  UNL1        0.2459
      9 C          -1.6255    0.2302   -0.0126 C.2     1  UNL1       -0.3173
     10 C          -0.0941    1.9458    0.1425 C.3     1  UNL1        0.2814
     11 C          -2.3557    1.4747    0.2184 C.2     1  UNL1        0.7353
     12 O          -1.4054    2.4826    0.3170 O.3     1  UNL1       -0.4538
     13 BR         -2.4619   -1.4511   -0.1604 Br      1  UNL1       -0.0120
     14 O          -3.5280    1.6923    0.3258 O.2     1  UNL1       -0.5175
     15 H           2.1972    1.5190   -1.2630 H       1  UNL1        0.1361
     16 H           2.3464   -2.1008    1.0502 H       1  UNL1        0.1298
     17 H           4.8047   -1.9162    1.1690 H       1  UNL1        0.0944
     18 H           5.9646    0.0255    0.1352 H       1  UNL1        0.0985
     19 H           4.6339    1.7435   -1.0663 H       1  UNL1        0.0949
     20 H           0.3712   -1.4235   -0.1289 H       1  UNL1        0.2952
     21 H           0.5141    2.1724    1.0231 H       1  UNL1        0.0156
     22 H           0.3549    2.4244   -0.7300 H       1  UNL1        0.0341
@<TRIPOS>BOND
     1    15     1    1
     2    19     6    1
     3    22    10    1
     4     1     6   ar
     5     1     2   ar
     6     6     5   ar
     7     7    20    1
     8     7     2    1
     9     7     8    1
    10    13     9    1
    11     2     3   ar
    12     8     9    2
    13     8    10    1
    14     9    11    1
    15     5    18    1
    16     5     4   ar
    17    10    12    1
    18    10    21    1
    19    11    12    1
    20    11    14    2
    21     3     4   ar
    22     3    16    1
    23     4    17    1
