@<TRIPOS>MOLECULE
8g-b3lyp.log
 26 27 0 0 0
SMALL
USER_CHARGES
****
Gaussian 16 #p b3lyp/6-311g(d,p) pop=(chelpg,readradii)
@<TRIPOS>ATOM
      1 C          -2.0441   -1.1811    1.0140 C.ar    1  UNL1       -0.1123
      2 C          -1.3201   -0.4993    0.0272 C.ar    1  UNL1        0.2345
      3 C          -2.0083    0.2839   -0.8961 C.ar    1  UNL1       -0.2193
      4 C          -3.3957    0.4183   -0.8271 C.ar    1  UNL1       -0.2161
      5 C          -4.1113   -0.2654    0.1595 C.ar    1  UNL1        0.3852
      6 C          -3.4239   -1.0748    1.0744 C.ar    1  UNL1       -0.2514
      7 N           0.0973   -0.6468   -0.0412 N.pl3   1  UNL1       -0.4501
      8 C           1.0090    0.3486    0.0579 C.2     1  UNL1        0.2157
      9 C           2.3594    0.2661    0.0013 C.2     1  UNL1       -0.3103
     10 C           0.6607    1.7941    0.3165 C.3     1  UNL1        0.2624
     11 C           2.9602    1.5796    0.2151 C.2     1  UNL1        0.7404
     12 O           1.9126    2.4762    0.3977 O.3     1  UNL1       -0.4481
     13 BR          3.3608   -1.3082   -0.2637 Br      1  UNL1       -0.0262
     14 O           4.1056    1.9282    0.2479 O.2     1  UNL1       -0.5261
     15 O          -5.4623   -0.2160    0.3104 O.3     1  UNL1       -0.3818
     16 C          -6.2237    0.5784   -0.5926 C.3     1  UNL1        0.1517
     17 H          -1.5165   -1.7917    1.7383 H       1  UNL1        0.1158
     18 H          -1.4658    0.7781   -1.6933 H       1  UNL1        0.1427
     19 H          -3.9004    1.0362   -1.5570 H       1  UNL1        0.1375
     20 H          -3.9922   -1.6002    1.8320 H       1  UNL1        0.1426
     21 H           0.4716   -1.5857   -0.0871 H       1  UNL1        0.2777
     22 H           0.0702    2.2403   -0.4863 H       1  UNL1        0.0323
     23 H           0.1181    1.9127    1.2593 H       1  UNL1        0.0161
     24 H          -6.1139    0.2251   -1.6232 H       1  UNL1        0.0144
     25 H          -7.2608    0.4675   -0.2818 H       1  UNL1        0.0602
     26 H          -5.9381    1.6339   -0.5329 H       1  UNL1        0.0124
@<TRIPOS>BOND
     1    18     3    1
     2    24    16    1
     3    19     4    1
     4     3     4   ar
     5     3     2   ar
     6     4     5   ar
     7    16    26    1
     8    16    25    1
     9    16    15    1
    10    22    10    1
    11    13     9    1
    12    21     7    1
    13     7     2    1
    14     7     8    1
    15     9     8    2
    16     9    11    1
    17     2     1   ar
    18     8    10    1
    19     5    15    1
    20     5     6   ar
    21    11    14    2
    22    11    12    1
    23    10    12    1
    24    10    23    1
    25     1     6   ar
    26     1    17    1
    27     6    20    1
