@<TRIPOS>MOLECULE
8h-b3lyp.log
 22 23 0 0 0
SMALL
USER_CHARGES
****
Gaussian 16 #p b3lyp/6-311g(d,p) pop=(chelpg,readradii)
@<TRIPOS>ATOM
      1 C          -1.3046    0.7739    0.7277 C.ar    1  UNL1       -0.2999
      2 C          -0.6457   -0.3096    0.1381 C.ar    1  UNL1        0.3660
      3 C          -1.4046   -1.3049   -0.4908 C.ar    1  UNL1       -0.2676
      4 C          -2.7906   -1.2161   -0.5434 C.ar    1  UNL1        0.0133
      5 C          -3.4282   -0.1157    0.0232 C.ar    1  UNL1       -0.0344
      6 C          -2.6916    0.8782    0.6581 C.ar    1  UNL1        0.0357
      7 N           0.7563   -0.4722    0.1928 N.pl3   1  UNL1       -0.4871
      8 C           1.7360    0.4610    0.0571 C.2     1  UNL1        0.2121
      9 C           3.0695    0.2362    0.0047 C.2     1  UNL1       -0.3079
     10 C           1.5288    1.9465   -0.1176 C.3     1  UNL1        0.3149
     11 C           3.7907    1.4856   -0.2342 C.2     1  UNL1        0.7413
     12 O           2.8341    2.4892   -0.3132 O.3     1  UNL1       -0.4616
     13 BR          3.9152   -1.4413    0.1325 Br      1  UNL1       -0.0079
     14 O           4.9597    1.7079   -0.3607 O.2     1  UNL1       -0.5174
     15 BR         -5.3345    0.0255   -0.0649 Br      1  UNL1       -0.0798
     16 H          -0.7524    1.5258    1.2741 H       1  UNL1        0.1524
     17 H          -0.9060   -2.1503   -0.9524 H       1  UNL1        0.1494
     18 H          -3.3653   -1.9911   -1.0338 H       1  UNL1        0.0839
     19 H          -3.1919    1.7213    1.1166 H       1  UNL1        0.0770
     20 H           1.0891   -1.4278    0.1543 H       1  UNL1        0.2828
     21 H           0.9041    2.1752   -0.9861 H       1  UNL1        0.0099
     22 H           1.0946    2.4197    0.7657 H       1  UNL1        0.0249
@<TRIPOS>BOND
     1    18     4    1
     2    21    10    1
     3    17     3    1
     4     4     3   ar
     5     4     5   ar
     6     3     2   ar
     7    14    11    2
     8    12    11    1
     9    12    10    1
    10    11     9    1
    11    10     8    1
    12    10    22    1
    13    15     5    1
    14     9     8    2
    15     9    13    1
    16     5     6   ar
    17     8     7    1
    18     2     7    1
    19     2     1   ar
    20    20     7    1
    21     6     1   ar
    22     6    19    1
    23     1    16    1
