@<TRIPOS>MOLECULE
8i-b3lyp.log
 25 26 0 0 0
SMALL
USER_CHARGES
****
Gaussian 16 #p b3lyp/6-311g(d,p) pop=(chelpg,readradii)
@<TRIPOS>ATOM
      1 C          -1.2987   -0.6247    0.7849 C.ar    1  UNL1       -0.2494
      2 C          -0.8747    0.6088    0.2839 C.ar    1  UNL1        0.3592
      3 C          -1.7987    1.4211   -0.3813 C.ar    1  UNL1       -0.2300
      4 C          -3.1134    0.9993   -0.5495 C.ar    1  UNL1       -0.1402
      5 C          -3.5435   -0.2476   -0.0828 C.ar    1  UNL1        0.1349
      6 C          -2.6110   -1.0459    0.5867 C.ar    1  UNL1       -0.1467
      7 N           0.4485    1.0835    0.4822 N.pl3   1  UNL1       -0.6327
      8 C           1.6171    0.4300    0.2196 C.2     1  UNL1        0.3261
      9 C           2.8807    0.8952    0.3476 C.2     1  UNL1       -0.5793
     10 C           1.6856   -0.9721   -0.3430 C.3     1  UNL1        0.3270
     11 C           3.8150   -0.1200   -0.1208 C.2     1  UNL1        0.7600
     12 O           3.0730   -1.2262   -0.5341 O.3     1  UNL1       -0.4772
     13 O           5.0143   -0.1145   -0.1896 O.2     1  UNL1       -0.5333
     14 C          -4.9586   -0.7203   -0.3089 C.3     1  UNL1       -0.2053
     15 H          -0.6186   -1.2410    1.3590 H       1  UNL1        0.1436
     16 H          -1.4830    2.3824   -0.7729 H       1  UNL1        0.1243
     17 H          -3.8135    1.6492   -1.0644 H       1  UNL1        0.1198
     18 H          -2.9191   -2.0070    0.9852 H       1  UNL1        0.1214
     19 H           0.5352    2.0729    0.6638 H       1  UNL1        0.3715
     20 H           3.2068    1.8587    0.7077 H       1  UNL1        0.2033
     21 H           1.2838   -1.7266    0.3362 H       1  UNL1        0.0112
     22 H           1.1595   -1.0499   -1.2999 H       1  UNL1       -0.0034
     23 H          -5.0526   -1.2310   -1.2735 H       1  UNL1        0.0677
     24 H          -5.2717   -1.4244    0.4652 H       1  UNL1        0.0646
     25 H          -5.6626    0.1149   -0.3118 H       1  UNL1        0.0628
@<TRIPOS>BOND
     1    22    10    1
     2    23    14    1
     3    17     4    1
     4    16     3    1
     5     4     3   ar
     6     4     5   ar
     7    12    10    1
     8    12    11    1
     9     3     2   ar
    10    10     8    1
    11    10    21    1
    12    25    14    1
    13    14     5    1
    14    14    24    1
    15    13    11    2
    16    11     9    1
    17     5     6   ar
    18     8     9    2
    19     8     7    1
    20     2     7    1
    21     2     1   ar
    22     9    20    1
    23     7    19    1
    24     6     1   ar
    25     6    18    1
    26     1    15    1
