@<TRIPOS>MOLECULE
9a-b3lyp.log
 39 41 0 0 0
SMALL
USER_CHARGES
****
Gaussian 16 #p b3lyp/6-311g(d,p) pop=(chelpg,readradii)
@<TRIPOS>ATOM
      1 C           1.8073   -1.3815   -1.1676 C.ar    1  UNL1       -0.2464
      2 C           1.2927   -1.9102    0.0172 C.ar    1  UNL1        0.2914
      3 C           2.1752   -2.2692    1.0418 C.ar    1  UNL1       -0.1544
      4 C           3.5439   -2.0907    0.8804 C.ar    1  UNL1       -0.1957
      5 C           4.0740   -1.5332   -0.2903 C.ar    1  UNL1        0.1955
      6 C           3.1800   -1.1843   -1.3056 C.ar    1  UNL1       -0.1804
      7 N          -0.0980   -2.1388    0.1941 N.pl3   1  UNL1       -0.5172
      8 C          -1.1299   -1.3236   -0.1399 C.2     1  UNL1        0.3834
      9 C          -2.4435   -1.6474   -0.1694 C.2     1  UNL1       -0.3635
     10 C          -1.0159    0.1590   -0.4390 C.3     1  UNL1        0.0863
     11 C          -3.2531   -0.4828   -0.4941 C.2     1  UNL1        0.7844
     12 O          -2.3687    0.5757   -0.6848 O.3     1  UNL1       -0.4266
     13 CL         -3.1161   -3.2058    0.1613 Cl      1  UNL1       -0.0526
     14 O          -4.4375   -0.3437   -0.6087 O.2     1  UNL1       -0.5247
     15 C          -0.4172    0.9820    0.7334 C.3     1  UNL1        0.2808
     16 C          -0.0750    2.4151    0.3547 C.ar    1  UNL1       -0.0156
     17 O          -1.2553    0.8950    1.8796 O.3     1  UNL1       -0.6224
     18 C           5.5598   -1.3156   -0.4401 C.3     1  UNL1       -0.2284
     19 C           1.1979    2.9075    0.6602 C.ar    1  UNL1       -0.1047
     20 C           1.5446    4.2252    0.3680 C.ar    1  UNL1       -0.0899
     21 C           0.6163    5.0719   -0.2339 C.ar    1  UNL1       -0.0730
     22 C          -0.6559    4.5922   -0.5418 C.ar    1  UNL1       -0.1301
     23 C          -1.0014    3.2736   -0.2523 C.ar    1  UNL1       -0.0311
     24 H          -0.4403    0.3539   -1.3459 H       1  UNL1        0.0188
     25 H           0.5093    0.4859    1.0276 H       1  UNL1        0.0640
     26 H           1.1453   -1.1523   -1.9936 H       1  UNL1        0.1513
     27 H           1.7827   -2.6783    1.9665 H       1  UNL1        0.1224
     28 H           4.2115   -2.3791    1.6861 H       1  UNL1        0.1285
     29 H           3.5601   -0.7711   -2.2339 H       1  UNL1        0.1248
     30 H          -0.3643   -3.0380    0.5732 H       1  UNL1        0.3107
     31 H          -2.0719    1.3758    1.6981 H       1  UNL1        0.3841
     32 H           5.8195   -1.0367   -1.4631 H       1  UNL1        0.0690
     33 H           5.9102   -0.5162    0.2210 H       1  UNL1        0.0746
     34 H           6.1218   -2.2178   -0.1835 H       1  UNL1        0.0655
     35 H           1.9226    2.2544    1.1358 H       1  UNL1        0.0627
     36 H           2.5358    4.5900    0.6132 H       1  UNL1        0.0944
     37 H           0.8816    6.0982   -0.4613 H       1  UNL1        0.0868
     38 H          -1.3829    5.2446   -1.0126 H       1  UNL1        0.1025
     39 H          -1.9898    2.9120   -0.5083 H       1  UNL1        0.0750
@<TRIPOS>BOND
     1    29     6    1
     2    26     1    1
     3    32    18    1
     4    24    10    1
     5     6     1   ar
     6     6     5   ar
     7     1     2   ar
     8    38    22    1
     9    12    11    1
    10    12    10    1
    11    14    11    2
    12    22    23   ar
    13    22    21   ar
    14    39    23    1
    15    11     9    1
    16    37    21    1
    17    18     5    1
    18    18    34    1
    19    18    33    1
    20    10     8    1
    21    10    15    1
    22     5     4   ar
    23    23    16   ar
    24    21    20   ar
    25     9     8    2
    26     9    13    1
    27     8     7    1
    28     2     7    1
    29     2     3   ar
    30     7    30    1
    31    16    19   ar
    32    16    15    1
    33    20    36    1
    34    20    19   ar
    35    19    35    1
    36    15    25    1
    37    15    17    1
    38     4     3   ar
    39     4    28    1
    40     3    27    1
    41    31    17    1
