@<TRIPOS>MOLECULE
9aa-b3lyp.log
 38 39 0 0 0
SMALL
USER_CHARGES
****
Gaussian 16 #p b3lyp/6-311g(d,p) pop=(chelpg,readradii)
@<TRIPOS>ATOM
      1 C           1.9881   -0.7986   -1.0696 C.ar    1  UNL1       -0.1919
      2 C           1.5584   -1.1265    0.2180 C.ar    1  UNL1        0.2961
      3 C           2.4932   -1.1712    1.2558 C.ar    1  UNL1       -0.1718
      4 C           3.8308   -0.8826    1.0066 C.ar    1  UNL1       -0.1773
      5 C           4.2719   -0.5200   -0.2714 C.ar    1  UNL1        0.1564
      6 C           3.3256   -0.4864   -1.3003 C.ar    1  UNL1       -0.1609
      7 N           0.2017   -1.4637    0.4985 N.pl3   1  UNL1       -0.5200
      8 C          -0.9096   -0.9027   -0.0614 C.2     1  UNL1        0.3315
      9 C          -2.1467   -1.4372   -0.1356 C.2     1  UNL1       -0.3240
     10 C          -1.0035    0.5313   -0.5454 C.3     1  UNL1        0.0209
     11 C          -3.0905   -0.4684   -0.6976 C.2     1  UNL1        0.7966
     12 O          -2.3672    0.6769   -0.9677 O.3     1  UNL1       -0.4661
     13 CL         -2.6057   -3.0268    0.3670 Cl      1  UNL1       -0.0564
     14 O          -4.2601   -0.5651   -0.9351 O.2     1  UNL1       -0.5201
     15 C          -0.6481    1.5699    0.5455 C.3     1  UNL1        0.4154
     16 C          -0.9597    3.0178    0.1279 C.3     1  UNL1        0.3375
     17 O          -1.3640    1.3169    1.7501 O.3     1  UNL1       -0.6506
     18 C           5.7154   -0.1608   -0.5242 C.3     1  UNL1       -0.2189
     19 C          -0.3407    3.3851   -1.2287 C.3     1  UNL1       -0.3757
     20 C          -0.4930    3.9926    1.2188 C.3     1  UNL1       -0.2574
     21 H          -0.3707    0.7060   -1.4170 H       1  UNL1        0.0927
     22 H           0.4341    1.4789    0.7211 H       1  UNL1       -0.0975
     23 H           1.2884   -0.8150   -1.8965 H       1  UNL1        0.1062
     24 H           2.1679   -1.4295    2.2578 H       1  UNL1        0.1168
     25 H           4.5417   -0.9292    1.8250 H       1  UNL1        0.1284
     26 H           3.6402   -0.2348   -2.3078 H       1  UNL1        0.1274
     27 H           0.0504   -2.3716    0.9203 H       1  UNL1        0.3013
     28 H          -2.0488    3.0846    0.0429 H       1  UNL1       -0.0142
     29 H          -1.0568    0.4921    2.1399 H       1  UNL1        0.3779
     30 H           5.9921   -0.3320   -1.5667 H       1  UNL1        0.0656
     31 H           5.9005    0.8964   -0.3050 H       1  UNL1        0.0762
     32 H           6.3883   -0.7470    0.1058 H       1  UNL1        0.0663
     33 H           0.7432    3.2211   -1.2333 H       1  UNL1        0.0486
     34 H          -0.7800    2.8206   -2.0543 H       1  UNL1        0.0881
     35 H          -0.5093    4.4444   -1.4381 H       1  UNL1        0.0964
     36 H           0.5979    3.9690    1.3251 H       1  UNL1        0.0442
     37 H          -0.7782    5.0160    0.9600 H       1  UNL1        0.0541
     38 H          -0.9355    3.7476    2.1845 H       1  UNL1        0.0581
@<TRIPOS>BOND
     1    26     6    1
     2    34    19    1
     3    23     1    1
     4    30    18    1
     5    35    19    1
     6    21    10    1
     7     6     1   ar
     8     6     5   ar
     9    33    19    1
    10    19    16    1
    11     1     2   ar
    12    12    11    1
    13    12    10    1
    14    14    11    2
    15    11     9    1
    16    10     8    1
    17    10    15    1
    18    18    31    1
    19    18     5    1
    20    18    32    1
    21     5     4   ar
    22     9     8    2
    23     9    13    1
    24     8     7    1
    25    28    16    1
    26    16    15    1
    27    16    20    1
    28     2     7    1
    29     2     3   ar
    30     7    27    1
    31    15    22    1
    32    15    17    1
    33    37    20    1
    34     4     3   ar
    35     4    25    1
    36    20    36    1
    37    20    38    1
    38     3    24    1
    39    17    29    1
