@<TRIPOS>MOLECULE
9ab-b3lyp.log
 41 42 0 0 0
SMALL
USER_CHARGES
****
Gaussian 16 #p b3lyp/6-311g(d,p) pop=(chelpg,readradii)
@<TRIPOS>ATOM
      1 C           1.8769   -0.9897   -1.0897 C.ar    1  UNL1       -0.1489
      2 C           1.4288   -1.4883    0.1352 C.ar    1  UNL1        0.2642
      3 C           2.3579   -1.7388    1.1485 C.ar    1  UNL1       -0.1531
      4 C           3.7090   -1.4845    0.9381 C.ar    1  UNL1       -0.2017
      5 C           4.1706   -0.9554   -0.2729 C.ar    1  UNL1        0.1804
      6 C           3.2296   -0.7163   -1.2789 C.ar    1  UNL1       -0.1717
      7 N           0.0552   -1.7965    0.3666 N.pl3   1  UNL1       -0.5327
      8 C          -1.0200   -1.0850   -0.0813 C.2     1  UNL1        0.3247
      9 C          -2.2831   -1.5294   -0.2521 C.2     1  UNL1       -0.3261
     10 C          -1.0337    0.4164   -0.2913 C.3     1  UNL1        0.0896
     11 C          -3.1675   -0.4251   -0.6310 C.2     1  UNL1        0.7904
     12 O          -2.3814    0.7094   -0.6857 O.3     1  UNL1       -0.4826
     13 CL         -2.8311   -3.1567   -0.0481 Cl      1  UNL1       -0.0565
     14 O          -4.3372   -0.4136   -0.8865 O.2     1  UNL1       -0.5164
     15 C          -0.6410    1.2170    0.9742 C.3     1  UNL1        0.4938
     16 C          -0.8865    2.7200    0.8205 C.3     1  UNL1       -0.1861
     17 O          -1.3978    0.8083    2.1101 O.3     1  UNL1       -0.6574
     18 C           5.6315   -0.6383   -0.4772 C.3     1  UNL1       -0.2161
     19 C          -0.1186    3.4444   -0.3006 C.3     1  UNL1        0.3372
     20 C           1.4052    3.3820   -0.1136 C.3     1  UNL1       -0.2671
     21 C          -0.5910    4.9032   -0.3865 C.3     1  UNL1       -0.3290
     22 H          -0.3809    0.7195   -1.1128 H       1  UNL1        0.0732
     23 H           0.4252    1.0240    1.1475 H       1  UNL1       -0.0866
     24 H           1.1783   -0.8445   -1.9051 H       1  UNL1        0.0893
     25 H           2.0172   -2.1294    2.1013 H       1  UNL1        0.1145
     26 H           4.4151   -1.6917    1.7355 H       1  UNL1        0.1328
     27 H           3.5590   -0.3308   -2.2382 H       1  UNL1        0.1261
     28 H          -0.1461   -2.7577    0.6131 H       1  UNL1        0.3087
     29 H          -1.9613    2.8603    0.6798 H       1  UNL1        0.0843
     30 H          -0.6317    3.1764    1.7835 H       1  UNL1        0.0412
     31 H          -1.1570   -0.0930    2.3492 H       1  UNL1        0.3713
     32 H           5.8960   -0.6444   -1.5367 H       1  UNL1        0.0615
     33 H           5.8758    0.3542   -0.0832 H       1  UNL1        0.0781
     34 H           6.2717   -1.3594    0.0364 H       1  UNL1        0.0627
     35 H          -0.3668    2.9700   -1.2587 H       1  UNL1       -0.0395
     36 H           1.9164    3.9368   -0.9058 H       1  UNL1        0.0595
     37 H           1.6953    3.8290    0.8437 H       1  UNL1        0.0656
     38 H           1.7892    2.3585   -0.1324 H       1  UNL1        0.0073
     39 H          -0.0846    5.4336   -1.1981 H       1  UNL1        0.0752
     40 H          -1.6678    4.9617   -0.5664 H       1  UNL1        0.0690
     41 H          -0.3780    5.4384    0.5453 H       1  UNL1        0.0706
@<TRIPOS>BOND
     1    27     6    1
     2    24     1    1
     3    32    18    1
     4     6     1   ar
     5     6     5   ar
     6    35    19    1
     7    39    21    1
     8    22    10    1
     9     1     2   ar
    10    36    20    1
    11    14    11    2
    12    12    11    1
    13    12    10    1
    14    11     9    1
    15    40    21    1
    16    18     5    1
    17    18    33    1
    18    18    34    1
    19    21    19    1
    20    21    41    1
    21    19    20    1
    22    19    16    1
    23    10     8    1
    24    10    15    1
    25     5     4   ar
    26     9     8    2
    27     9    13    1
    28    38    20    1
    29    20    37    1
    30     8     7    1
    31     2     7    1
    32     2     3   ar
    33     7    28    1
    34    29    16    1
    35    16    15    1
    36    16    30    1
    37     4     3   ar
    38     4    26    1
    39    15    23    1
    40    15    17    1
    41     3    25    1
    42    17    31    1
