@<TRIPOS>MOLECULE
9g-b3lyp.log
 40 42 0 0 0
SMALL
USER_CHARGES
****
Gaussian 16 #p b3lyp/6-311g(d,p) pop=(chelpg,readradii)
@<TRIPOS>ATOM
      1 C          -1.8788    0.6180   -1.0405 C.ar    1  UNL1       -0.3448
      2 C          -1.8276    1.4561    0.0778 C.ar    1  UNL1        0.4056
      3 C          -2.7921    1.3129    1.0822 C.ar    1  UNL1       -0.2480
      4 C          -3.7843    0.3442    0.9786 C.ar    1  UNL1        0.0048
      5 C          -3.8025   -0.5017   -0.1273 C.ar    1  UNL1       -0.0365
      6 C          -2.8546   -0.3705   -1.1370 C.ar    1  UNL1        0.0413
      7 N          -0.8599    2.4790    0.2053 N.pl3   1  UNL1       -0.5691
      8 C           0.4502    2.4599   -0.1613 C.2     1  UNL1        0.3854
      9 C           1.2725    3.5283   -0.2574 C.2     1  UNL1       -0.3509
     10 C           1.2815    1.2148   -0.4028 C.3     1  UNL1        0.0564
     11 C           2.6289    3.1045   -0.5811 C.2     1  UNL1        0.7866
     12 O           2.5937    1.7202   -0.7006 O.3     1  UNL1       -0.4337
     13 CL          0.8351    5.1799    0.0007 Cl      1  UNL1       -0.0472
     14 O           3.6374    3.7294   -0.7437 O.2     1  UNL1       -0.5233
     15 C           1.3422    0.2698    0.8272 C.3     1  UNL1        0.4775
     16 C           1.9763   -1.0787    0.5370 C.ar    1  UNL1       -0.2002
     17 O           1.9364    0.9436    1.9336 O.3     1  UNL1       -0.6417
     18 BR         -5.1527   -1.8515   -0.2649 Br      1  UNL1       -0.0768
     19 C           1.3838   -2.2337    1.0691 C.ar    1  UNL1       -0.0491
     20 C           1.9416   -3.4872    0.8759 C.ar    1  UNL1       -0.2516
     21 C           3.1242   -3.6206    0.1380 C.ar    1  UNL1        0.4269
     22 C           3.7315   -2.4824   -0.3983 C.ar    1  UNL1       -0.3131
     23 C           3.1562   -1.2265   -0.1963 C.ar    1  UNL1        0.0353
     24 O           3.5978   -4.8902   -0.0018 O.3     1  UNL1       -0.3963
     25 C           4.7984   -5.0939   -0.7374 C.3     1  UNL1        0.1555
     26 H           0.9444    0.6500   -1.2738 H       1  UNL1        0.0280
     27 H           0.3100    0.0911    1.1357 H       1  UNL1       -0.0054
     28 H          -1.1802    0.7511   -1.8564 H       1  UNL1        0.1707
     29 H          -2.7572    1.9552    1.9552 H       1  UNL1        0.1478
     30 H          -4.5259    0.2413    1.7600 H       1  UNL1        0.0840
     31 H          -2.8864   -1.0161   -2.0050 H       1  UNL1        0.0777
     32 H          -1.1863    3.3610    0.5781 H       1  UNL1        0.3185
     33 H           2.8873    0.9982    1.7804 H       1  UNL1        0.3764
     34 H           0.4702   -2.1471    1.6484 H       1  UNL1        0.0815
     35 H           1.4805   -4.3776    1.2861 H       1  UNL1        0.1308
     36 H           4.6446   -2.5552   -0.9736 H       1  UNL1        0.1385
     37 H           3.6422   -0.3580   -0.6234 H       1  UNL1        0.0751
     38 H           4.6899   -4.7669   -1.7769 H       1  UNL1        0.0120
     39 H           5.6428   -4.5715   -0.2756 H       1  UNL1        0.0172
     40 H           4.9816   -6.1667   -0.7141 H       1  UNL1        0.0544
@<TRIPOS>BOND
     1    31     6    1
     2    28     1    1
     3    38    25    1
     4    26    10    1
     5     6     1   ar
     6     6     5   ar
     7     1     2   ar
     8    36    22    1
     9    14    11    2
    10    25    40    1
    11    25    39    1
    12    25    24    1
    13    12    11    1
    14    12    10    1
    15    37    23    1
    16    11     9    1
    17    10     8    1
    18    10    15    1
    19    22    23   ar
    20    22    21   ar
    21    18     5    1
    22     9     8    2
    23     9    13    1
    24    23    16   ar
    25     8     7    1
    26     5     4   ar
    27    24    21    1
    28     2     7    1
    29     2     3   ar
    30    21    20   ar
    31     7    32    1
    32    16    15    1
    33    16    19   ar
    34    15    27    1
    35    15    17    1
    36    20    19   ar
    37    20    35    1
    38     4     3   ar
    39     4    30    1
    40    19    34    1
    41     3    29    1
    42    33    17    1
