@<TRIPOS>MOLECULE
9m-b3lyp.log
 46 49 0 0 0
SMALL
USER_CHARGES
****
Gaussian 16 #p b3lyp/6-311g(d,p) pop=(chelpg,readradii)
@<TRIPOS>ATOM
      1 C           2.5030    0.8634   -1.0628 C.ar    1  UNL1       -0.3533
      2 C           3.1419    0.2692    0.0301 C.ar    1  UNL1        0.4208
      3 C           3.7051    1.0858    1.0178 C.ar    1  UNL1       -0.2647
      4 C           3.6231    2.4707    0.9236 C.ar    1  UNL1        0.0105
      5 C           2.9563    3.0453   -0.1555 C.ar    1  UNL1       -0.0290
      6 C           2.3955    2.2490   -1.1487 C.ar    1  UNL1        0.0416
      7 N           3.2802   -1.1331    0.1473 N.pl3   1  UNL1       -0.5680
      8 C           2.3882   -2.1066   -0.1800 C.2     1  UNL1        0.3687
      9 C           2.6450   -3.4303   -0.2759 C.2     1  UNL1       -0.3305
     10 C           0.8968   -1.9115   -0.3750 C.3     1  UNL1        0.0854
     11 C           1.4214   -4.1723   -0.5512 C.2     1  UNL1        0.7792
     12 O           0.4001   -3.2331   -0.6409 O.3     1  UNL1       -0.4359
     13 CL          4.1832   -4.1887   -0.0659 Cl      1  UNL1       -0.0538
     14 O           1.2196   -5.3434   -0.6968 O.2     1  UNL1       -0.5212
     15 C           0.1818   -1.3197    0.8704 C.3     1  UNL1        0.3898
     16 C          -1.2592   -0.9175    0.6036 C.ar    1  UNL1       -0.0596
     17 O           0.3231   -2.1940    1.9834 O.3     1  UNL1       -0.6406
     18 BR          2.8203    4.9504   -0.2800 Br      1  UNL1       -0.0784
     19 C          -1.6805    0.3719    0.9413 C.ar    1  UNL1       -0.1173
     20 C          -2.9990    0.7718    0.7478 C.ar    1  UNL1       -0.0832
     21 C          -3.9477   -0.1093    0.2120 C.ar    1  UNL1        0.0207
     22 C          -3.5216   -1.4030   -0.1232 C.ar    1  UNL1       -0.1275
     23 C          -2.2026   -1.8023    0.0654 C.ar    1  UNL1       -0.0490
     24 C          -5.3569    0.3115    0.0064 C.ar    1  UNL1        0.0921
     25 C          -6.0184    1.1021    0.9578 C.ar    1  UNL1       -0.1364
     26 C          -7.3402    1.4953    0.7663 C.ar    1  UNL1       -0.0691
     27 C          -8.0290    1.1068   -0.3816 C.ar    1  UNL1       -0.1018
     28 C          -7.3844    0.3213   -1.3358 C.ar    1  UNL1       -0.0699
     29 C          -6.0629   -0.0725   -1.1434 C.ar    1  UNL1       -0.1286
     30 H           0.6671   -1.2953   -1.2463 H       1  UNL1        0.0199
     31 H           0.7312   -0.4192    1.1515 H       1  UNL1        0.0283
     32 H           2.1141    0.2530   -1.8675 H       1  UNL1        0.1727
     33 H           4.1984    0.6338    1.8711 H       1  UNL1        0.1511
     34 H           4.0616    3.0939    1.6921 H       1  UNL1        0.0820
     35 H           1.8985    2.7008   -1.9973 H       1  UNL1        0.0757
     36 H           4.1722   -1.4688    0.4866 H       1  UNL1        0.3193
     37 H          -0.2302   -2.9704    1.8361 H       1  UNL1        0.3808
     38 H          -0.9681    1.0766    1.3583 H       1  UNL1        0.0696
     39 H          -3.2895    1.7860    0.9973 H       1  UNL1        0.0819
     40 H          -4.2367   -2.1147   -0.5197 H       1  UNL1        0.0938
     41 H          -1.9099   -2.8077   -0.2117 H       1  UNL1        0.0881
     42 H          -5.5013    1.3893    1.8664 H       1  UNL1        0.0951
     43 H          -7.8357    2.0978    1.5195 H       1  UNL1        0.0867
     44 H          -9.0583    1.4126   -0.5307 H       1  UNL1        0.0887
     45 H          -7.9087    0.0203   -2.2360 H       1  UNL1        0.0877
     46 H          -5.5653   -0.6648   -1.9030 H       1  UNL1        0.0877
@<TRIPOS>BOND
     1    45    28    1
     2    35     6    1
     3    46    29    1
     4    32     1    1
     5    28    29   ar
     6    28    27   ar
     7    30    10    1
     8     6     1   ar
     9     6     5   ar
    10    29    24   ar
    11     1     2   ar
    12    14    11    2
    13    12    11    1
    14    12    10    1
    15    11     9    1
    16    44    27    1
    17    40    22    1
    18    27    26   ar
    19    10     8    1
    20    10    15    1
    21    18     5    1
    22     9     8    2
    23     9    13    1
    24    41    23    1
    25     8     7    1
    26     5     4   ar
    27    22    23   ar
    28    22    21   ar
    29    24    21    1
    30    24    25   ar
    31     2     7    1
    32     2     3   ar
    33    23    16   ar
    34     7    36    1
    35    21    20   ar
    36    16    15    1
    37    16    19   ar
    38    20    19   ar
    39    20    39    1
    40    26    25   ar
    41    26    43    1
    42    15    31    1
    43    15    17    1
    44     4     3   ar
    45     4    34    1
    46    19    38    1
    47    25    42    1
    48     3    33    1
    49    37    17    1
