@<TRIPOS>MOLECULE
9n-b3lyp.log
 46 49 0 0 0
SMALL
USER_CHARGES
****
Gaussian 16 #p b3lyp/6-311g(d,p) pop=(chelpg,readradii)
@<TRIPOS>ATOM
      1 C           2.4604    2.2757   -1.3301 C.ar    1  UNL1       -0.2913
      2 C           3.2127    1.9569   -0.1949 C.ar    1  UNL1        0.3916
      3 C           3.5315    2.9623    0.7254 C.ar    1  UNL1       -0.2093
      4 C           3.0935    4.2660    0.5151 C.ar    1  UNL1       -0.0513
      5 C           2.3183    4.5788   -0.6012 C.ar    1  UNL1       -0.1168
      6 C           2.0046    3.5783   -1.5188 C.ar    1  UNL1       -0.0385
      7 N           3.7071    0.6482    0.0306 N.pl3   1  UNL1       -0.5932
      8 C           3.0929   -0.5421   -0.1959 C.2     1  UNL1        0.4234
      9 C           3.6751   -1.7630   -0.1880 C.2     1  UNL1       -0.3254
     10 C           1.6009   -0.7457   -0.3773 C.3     1  UNL1       -0.0485
     11 C           2.6798   -2.8087   -0.3777 C.2     1  UNL1        0.7651
     12 O           1.4539   -2.1677   -0.5252 O.3     1  UNL1       -0.4035
     13 CL          5.3554   -2.0893    0.0529 Cl      1  UNL1       -0.0603
     14 O           2.7790   -4.0015   -0.4228 O.2     1  UNL1       -0.5214
     15 C           0.7603   -0.2525    0.8313 C.3     1  UNL1        0.4409
     16 C          -0.7364   -0.2396    0.5666 C.ar    1  UNL1       -0.1104
     17 O           1.1101   -0.9768    2.0053 O.3     1  UNL1       -0.6401
     18 C          -1.4711    0.9087    0.8765 C.ar    1  UNL1       -0.1098
     19 C          -2.8492    0.9531    0.6920 C.ar    1  UNL1       -0.0831
     20 C          -3.5455   -0.1560    0.1927 C.ar    1  UNL1        0.0444
     21 C          -2.8052   -1.3066   -0.1153 C.ar    1  UNL1       -0.1579
     22 C          -1.4263   -1.3506    0.0646 C.ar    1  UNL1        0.0004
     23 C          -5.0168   -0.1129   -0.0035 C.ar    1  UNL1        0.0749
     24 C          -5.8493    0.5219    0.9305 C.ar    1  UNL1       -0.1292
     25 C          -7.2289    0.5638    0.7470 C.ar    1  UNL1       -0.0629
     26 C          -7.8065   -0.0283   -0.3750 C.ar    1  UNL1       -0.1133
     27 C          -6.9919   -0.6627   -1.3114 C.ar    1  UNL1       -0.0636
     28 C          -5.6124   -0.7048   -1.1273 C.ar    1  UNL1       -0.1344
     29 H           1.2260   -0.2810   -1.2909 H       1  UNL1        0.0605
     30 H           1.0708    0.7741    1.0345 H       1  UNL1        0.0241
     31 H           2.2596    1.5208   -2.0796 H       1  UNL1        0.1468
     32 H           4.1111    2.7144    1.6079 H       1  UNL1        0.1260
     33 H           3.3485    5.0361    1.2341 H       1  UNL1        0.0942
     34 H           1.9696    5.5925   -0.7579 H       1  UNL1        0.0976
     35 H           1.4201    3.8134   -2.4009 H       1  UNL1        0.0946
     36 H           4.6554    0.5808    0.3764 H       1  UNL1        0.3245
     37 H           0.7802   -1.8792    1.9175 H       1  UNL1        0.3800
     38 H          -0.9586    1.7837    1.2633 H       1  UNL1        0.0743
     39 H          -3.3874    1.8665    0.9185 H       1  UNL1        0.0791
     40 H          -3.3169   -2.1889   -0.4825 H       1  UNL1        0.1000
     41 H          -0.8880   -2.2559   -0.1876 H       1  UNL1        0.0738
     42 H          -5.4146    0.9639    1.8199 H       1  UNL1        0.0924
     43 H          -7.8542    1.0513    1.4867 H       1  UNL1        0.0842
     44 H          -8.8807    0.0036   -0.5177 H       1  UNL1        0.0930
     45 H          -7.4301   -1.1197   -2.1917 H       1  UNL1        0.0877
     46 H          -4.9883   -1.1813   -1.8748 H       1  UNL1        0.0908
@<TRIPOS>BOND
     1    35     6    1
     2    45    27    1
     3    31     1    1
     4    46    28    1
     5     6     1   ar
     6     6     5   ar
     7     1     2   ar
     8    27    28   ar
     9    27    26   ar
    10    29    10    1
    11    28    23   ar
    12    34     5    1
    13     5     4   ar
    14    12    11    1
    15    12    10    1
    16    44    26    1
    17    40    21    1
    18    14    11    2
    19    11     9    1
    20    10     8    1
    21    10    15    1
    22    26    25   ar
    23     8     9    2
    24     8     7    1
    25     2     7    1
    26     2     3   ar
    27     9    13    1
    28    41    22    1
    29    21    22   ar
    30    21    20   ar
    31    23    20    1
    32    23    24   ar
    33     7    36    1
    34    22    16   ar
    35    20    19   ar
    36     4     3   ar
    37     4    33    1
    38    16    15    1
    39    16    18   ar
    40    19    18   ar
    41    19    39    1
    42     3    32    1
    43    25    24   ar
    44    25    43    1
    45    15    30    1
    46    15    17    1
    47    18    38    1
    48    24    42    1
    49    37    17    1
