@<TRIPOS>MOLECULE
9p-b3lyp.log
 47 50 0 0 0
SMALL
USER_CHARGES
****
Gaussian 16 #p b3lyp/6-311g(d,p) pop=(chelpg,readradii)
@<TRIPOS>ATOM
      1 C           2.4858    2.0573   -1.2724 C.ar    1  UNL1       -0.1799
      2 C           3.1357    1.6794   -0.0964 C.ar    1  UNL1        0.2323
      3 C           3.3075    2.6264    0.9198 C.ar    1  UNL1       -0.1238
      4 C           2.8331    3.9222    0.7689 C.ar    1  UNL1       -0.2253
      5 C           2.1560    4.2849   -0.3977 C.ar    1  UNL1        0.4017
      6 C           1.9825    3.3477   -1.4168 C.ar    1  UNL1       -0.2978
      7 N           3.6647    0.3690    0.0749 N.pl3   1  UNL1       -0.5047
      8 C           3.0437   -0.8107   -0.1715 C.2     1  UNL1        0.3497
      9 C           3.6119   -2.0382   -0.2202 C.2     1  UNL1       -0.3360
     10 C           1.5491   -0.9885   -0.3527 C.3     1  UNL1        0.0840
     11 C           2.6045   -3.0622   -0.4469 C.2     1  UNL1        0.7755
     12 O           1.3826   -2.4009   -0.5573 O.3     1  UNL1       -0.4249
     13 CL          5.2934   -2.3895   -0.0183 Cl      1  UNL1       -0.0642
     14 O           2.6867   -4.2533   -0.5449 O.2     1  UNL1       -0.5257
     15 C           0.7133   -0.5351    0.8745 C.3     1  UNL1        0.3473
     16 C          -0.7812   -0.4773    0.6015 C.ar    1  UNL1       -0.0551
     17 O           1.0400   -1.3211    2.0146 O.3     1  UNL1       -0.6257
     18 C          -1.4927    0.6719    0.9581 C.ar    1  UNL1       -0.1322
     19 C          -2.8676    0.7569    0.7632 C.ar    1  UNL1       -0.0781
     20 C          -3.5836   -0.3110    0.2054 C.ar    1  UNL1        0.0264
     21 C          -2.8666   -1.4633   -0.1486 C.ar    1  UNL1       -0.1355
     22 C          -1.4911   -1.5477    0.0424 C.ar    1  UNL1       -0.0290
     23 C          -5.0512   -0.2239   -0.0037 C.ar    1  UNL1        0.0776
     24 C          -5.8794    0.3872    0.9497 C.ar    1  UNL1       -0.1245
     25 C          -7.2553    0.4714    0.7535 C.ar    1  UNL1       -0.0668
     26 C          -7.8336   -0.0541   -0.4008 C.ar    1  UNL1       -0.1095
     27 C          -7.0234   -0.6650   -1.3565 C.ar    1  UNL1       -0.0785
     28 C          -5.6476   -0.7492   -1.1598 C.ar    1  UNL1       -0.1235
     29 O           1.6950    5.5679   -0.4823 O.3     1  UNL1       -0.5667
     30 H           1.1817   -0.4791   -1.2461 H       1  UNL1        0.0164
     31 H           1.0429    0.4738    1.1286 H       1  UNL1        0.0427
     32 H           2.3885    1.3527   -2.0893 H       1  UNL1        0.1507
     33 H           3.8077    2.3384    1.8376 H       1  UNL1        0.1209
     34 H           2.9654    4.6588    1.5518 H       1  UNL1        0.1570
     35 H           1.4744    3.6269   -2.3347 H       1  UNL1        0.1419
     36 H           4.6368    0.2990    0.3456 H       1  UNL1        0.3135
     37 H           0.7182   -2.2190    1.8690 H       1  UNL1        0.3778
     38 H          -0.9645    1.5155    1.3909 H       1  UNL1        0.0809
     39 H          -3.3874    1.6707    1.0281 H       1  UNL1        0.0792
     40 H          -3.3946   -2.3154   -0.5612 H       1  UNL1        0.0958
     41 H          -0.9705   -2.4527   -0.2459 H       1  UNL1        0.0782
     42 H          -5.4448    0.7770    1.8633 H       1  UNL1        0.0912
     43 H          -7.8775    0.9394    1.5083 H       1  UNL1        0.0852
     44 H          -8.9049    0.0107   -0.5535 H       1  UNL1        0.0926
     45 H          -7.4621   -1.0708   -2.2614 H       1  UNL1        0.0923
     46 H          -5.0261   -1.2068   -1.9212 H       1  UNL1        0.0868
     47 H           1.2426    5.7031   -1.3217 H       1  UNL1        0.4095
@<TRIPOS>BOND
     1    35     6    1
     2    45    27    1
     3    32     1    1
     4    46    28    1
     5     6     1   ar
     6     6     5   ar
     7    27    28   ar
     8    27    26   ar
     9    47    29    1
    10     1     2   ar
    11    30    10    1
    12    28    23   ar
    13    40    21    1
    14    12    11    1
    15    12    10    1
    16    44    26    1
    17    14    11    2
    18    29     5    1
    19    11     9    1
    20    26    25   ar
    21     5     4   ar
    22    10     8    1
    23    10    15    1
    24    41    22    1
    25     9     8    2
    26     9    13    1
    27     8     7    1
    28    21    22   ar
    29    21    20   ar
    30     2     7    1
    31     2     3   ar
    32    23    20    1
    33    23    24   ar
    34    22    16   ar
    35     7    36    1
    36    20    19   ar
    37    16    15    1
    38    16    18   ar
    39    25    24   ar
    40    25    43    1
    41    19    18   ar
    42    19    39    1
    43     4     3   ar
    44     4    34    1
    45    15    31    1
    46    15    17    1
    47     3    33    1
    48    24    42    1
    49    18    38    1
    50    37    17    1
