@<TRIPOS>MOLECULE
9q-b3lyp.log
 49 52 0 0 0
SMALL
USER_CHARGES
****
Gaussian 16 #p b3lyp/6-311g(d,p) pop=(chelpg,readradii)
@<TRIPOS>ATOM
      1 C           1.8325    2.4003   -1.2389 C.ar    1  UNL1       -0.2731
      2 C           2.5745    2.0742   -0.1015 C.ar    1  UNL1        0.3196
      3 C           2.7807    3.0507    0.8781 C.ar    1  UNL1       -0.1608
      4 C           2.2418    4.3229    0.7226 C.ar    1  UNL1       -0.1807
      5 C           1.4676    4.6556   -0.3954 C.ar    1  UNL1        0.1731
      6 C           1.2767    3.6707   -1.3689 C.ar    1  UNL1       -0.1637
      7 N           3.1721    0.7965    0.0641 N.pl3   1  UNL1       -0.4819
      8 C           2.6362   -0.4221   -0.1919 C.2     1  UNL1        0.3407
      9 C           3.2894   -1.6079   -0.2314 C.2     1  UNL1       -0.3572
     10 C           1.1571   -0.7051   -0.3797 C.3     1  UNL1        0.0783
     11 C           2.3553   -2.7001   -0.4584 C.2     1  UNL1        0.7849
     12 O           1.0916   -2.1257   -0.5799 O.3     1  UNL1       -0.4257
     13 BR          5.1400   -1.8632    0.0128 Br      1  UNL1       -0.0125
     14 O           2.5180   -3.8836   -0.5487 O.2     1  UNL1       -0.5371
     15 C           0.2905   -0.3070    0.8454 C.3     1  UNL1        0.3702
     16 C          -1.2044   -0.3765    0.5781 C.ar    1  UNL1       -0.0637
     17 O           0.6841   -1.0502    1.9932 O.3     1  UNL1       -0.6373
     18 C           0.8485    6.0248   -0.5345 C.3     1  UNL1       -0.2078
     19 C          -2.0046    0.7244    0.8969 C.ar    1  UNL1       -0.0962
     20 C          -3.3830    0.6910    0.7103 C.ar    1  UNL1       -0.0982
     21 C          -4.0132   -0.4517    0.1994 C.ar    1  UNL1        0.0262
     22 C          -3.2071   -1.5545   -0.1185 C.ar    1  UNL1       -0.1416
     23 C          -1.8285   -1.5205    0.0638 C.ar    1  UNL1       -0.0291
     24 C          -5.4844   -0.4936    0.0020 C.ar    1  UNL1        0.0833
     25 C          -6.3541    0.0788    0.9424 C.ar    1  UNL1       -0.1117
     26 C          -7.7336    0.0396    0.7580 C.ar    1  UNL1       -0.0953
     27 C          -8.2743   -0.5734   -0.3711 C.ar    1  UNL1       -0.0853
     28 C          -7.4226   -1.1469   -1.3138 C.ar    1  UNL1       -0.0897
     29 C          -6.0431   -1.1074   -1.1291 C.ar    1  UNL1       -0.1211
     30 H           0.7564   -0.2261   -1.2750 H       1  UNL1        0.0209
     31 H           0.5376    0.7286    1.0854 H       1  UNL1        0.0307
     32 H           1.7142    1.6780   -2.0372 H       1  UNL1        0.1559
     33 H           3.3564    2.8062    1.7642 H       1  UNL1        0.1244
     34 H           2.4186    5.0671    1.4923 H       1  UNL1        0.1216
     35 H           0.7034    3.9038   -2.2601 H       1  UNL1        0.1230
     36 H           4.1361    0.7843    0.3724 H       1  UNL1        0.2664
     37 H           0.4203   -1.9698    1.8675 H       1  UNL1        0.3794
     38 H           0.6316    6.2591   -1.5788 H       1  UNL1        0.0614
     39 H          -0.0947    6.0874    0.0191 H       1  UNL1        0.0712
     40 H           1.5082    6.8026   -0.1427 H       1  UNL1        0.0612
     41 H          -1.5438    1.6235    1.2932 H       1  UNL1        0.0691
     42 H          -3.9736    1.5692    0.9451 H       1  UNL1        0.0828
     43 H          -3.6667   -2.4611   -0.4953 H       1  UNL1        0.0951
     44 H          -1.2386   -2.3907   -0.1969 H       1  UNL1        0.0822
     45 H          -5.9474    0.5351    1.8378 H       1  UNL1        0.0876
     46 H          -8.3875    0.4797    1.5029 H       1  UNL1        0.0929
     47 H          -9.3483   -0.6047   -0.5144 H       1  UNL1        0.0857
     48 H          -7.8321   -1.6197   -2.1996 H       1  UNL1        0.0936
     49 H          -5.3910   -1.5369   -1.8811 H       1  UNL1        0.0882
@<TRIPOS>BOND
     1    35     6    1
     2    48    28    1
     3    32     1    1
     4    49    29    1
     5    38    18    1
     6     6     1   ar
     7     6     5   ar
     8    28    29   ar
     9    28    27   ar
    10    30    10    1
    11     1     2   ar
    12    29    24   ar
    13    12    11    1
    14    12    10    1
    15    14    11    2
    16    18     5    1
    17    18    40    1
    18    18    39    1
    19    47    27    1
    20    43    22    1
    21    11     9    1
    22     5     4   ar
    23    10     8    1
    24    10    15    1
    25    27    26   ar
    26     9     8    2
    27     9    13    1
    28    44    23    1
    29     8     7    1
    30    22    23   ar
    31    22    21   ar
    32     2     7    1
    33     2     3   ar
    34    24    21    1
    35    24    25   ar
    36    23    16   ar
    37     7    36    1
    38    21    20   ar
    39    16    15    1
    40    16    19   ar
    41    20    19   ar
    42    20    42    1
    43     4     3   ar
    44     4    34    1
    45    26    25   ar
    46    26    46    1
    47    15    31    1
    48    15    17    1
    49     3    33    1
    50    19    41    1
    51    25    45    1
    52    37    17    1
