@<TRIPOS>MOLECULE
9r-b3lyp.log
 46 49 0 0 0
SMALL
USER_CHARGES
****
Gaussian 16 #p b3lyp/6-311g(d,p) pop=(chelpg,readradii)
@<TRIPOS>ATOM
      1 C           1.8623    1.6462   -1.0783 C.ar    1  UNL1       -0.3487
      2 C           2.6024    1.2214    0.0295 C.ar    1  UNL1        0.4227
      3 C           2.9204    2.1438    1.0329 C.ar    1  UNL1       -0.2593
      4 C           2.4981    3.4655    0.9393 C.ar    1  UNL1        0.0031
      5 C           1.7356    3.8642   -0.1555 C.ar    1  UNL1       -0.0192
      6 C           1.4149    2.9619   -1.1646 C.ar    1  UNL1        0.0356
      7 N           3.0843   -0.1039    0.1460 N.pl3   1  UNL1       -0.5542
      8 C           2.4605   -1.2665   -0.1798 C.2     1  UNL1        0.3946
      9 C           3.0291   -2.4906   -0.2697 C.2     1  UNL1       -0.3552
     10 C           0.9661   -1.4347   -0.3831 C.3     1  UNL1        0.0026
     11 C           2.0199   -3.5037   -0.5508 C.2     1  UNL1        0.7809
     12 O           0.8031   -2.8356   -0.6537 O.3     1  UNL1       -0.4146
     13 BR          4.8529   -2.8875   -0.0226 Br      1  UNL1       -0.0079
     14 O           2.1013   -4.6897   -0.6934 O.2     1  UNL1       -0.5315
     15 C           0.1266   -1.0372    0.8618 C.3     1  UNL1        0.4489
     16 C          -1.3676   -0.9749    0.5919 C.ar    1  UNL1       -0.0737
     17 O           0.4598   -1.8680    1.9677 O.3     1  UNL1       -0.6480
     18 C          -2.0828    0.1582    0.9908 C.ar    1  UNL1       -0.1402
     19 C          -3.4583    0.2442    0.8025 C.ar    1  UNL1       -0.0816
     20 C          -4.1713   -0.8065    0.2093 C.ar    1  UNL1        0.0347
     21 C          -3.4505   -1.9423   -0.1879 C.ar    1  UNL1       -0.1590
     22 C          -2.0741   -2.0277   -0.0037 C.ar    1  UNL1       -0.0138
     23 C          -5.6399   -0.7191    0.0083 C.ar    1  UNL1        0.0950
     24 C          -6.4678   -0.1499    0.9874 C.ar    1  UNL1       -0.1413
     25 C          -7.8447   -0.0655    0.7991 C.ar    1  UNL1       -0.0739
     26 C          -8.4239   -0.5486   -0.3732 C.ar    1  UNL1       -0.1013
     27 C          -7.6139   -1.1178   -1.3545 C.ar    1  UNL1       -0.0672
     28 C          -6.2370   -1.2025   -1.1655 C.ar    1  UNL1       -0.1366
     29 BR          1.1319    5.6762   -0.2784 Br      1  UNL1       -0.0818
     30 H           0.6000   -0.8881   -1.2540 H       1  UNL1        0.0393
     31 H           0.4514   -0.0379    1.1575 H       1  UNL1        0.0110
     32 H           1.6581    0.9641   -1.8936 H       1  UNL1        0.1709
     33 H           3.4906    1.8214    1.8970 H       1  UNL1        0.1551
     34 H           2.7485    4.1722    1.7197 H       1  UNL1        0.0827
     35 H           0.8410    3.2830   -2.0242 H       1  UNL1        0.0764
     36 H           4.0335   -0.2103    0.4814 H       1  UNL1        0.2793
     37 H           0.1087   -2.7517    1.8043 H       1  UNL1        0.3783
     38 H          -1.5573    0.9884    1.4518 H       1  UNL1        0.0812
     39 H          -3.9809    1.1461    1.1002 H       1  UNL1        0.0835
     40 H          -3.9763   -2.7809   -0.6299 H       1  UNL1        0.1014
     41 H          -1.5509   -2.9197   -0.3261 H       1  UNL1        0.0774
     42 H          -6.0322    0.2066    1.9140 H       1  UNL1        0.0977
     43 H          -8.4668    0.3697    1.5732 H       1  UNL1        0.0891
     44 H          -9.4960   -0.4833   -0.5201 H       1  UNL1        0.0888
     45 H          -8.0535   -1.4900   -2.2732 H       1  UNL1        0.0874
     46 H          -5.6155   -1.6266   -1.9460 H       1  UNL1        0.0912
@<TRIPOS>BOND
     1    45    27    1
     2    35     6    1
     3    46    28    1
     4    32     1    1
     5    27    28   ar
     6    27    26   ar
     7    30    10    1
     8    28    23   ar
     9     6     1   ar
    10     6     5   ar
    11     1     2   ar
    12    14    11    2
    13    12    11    1
    14    12    10    1
    15    40    21    1
    16    11     9    1
    17    44    26    1
    18    10     8    1
    19    10    15    1
    20    26    25   ar
    21    41    22    1
    22    29     5    1
    23     9     8    2
    24     9    13    1
    25    21    22   ar
    26    21    20   ar
    27     8     7    1
    28     5     4   ar
    29    22    16   ar
    30    23    20    1
    31    23    24   ar
    32     2     7    1
    33     2     3   ar
    34     7    36    1
    35    20    19   ar
    36    16    15    1
    37    16    18   ar
    38    25    24   ar
    39    25    43    1
    40    19    18   ar
    41    19    39    1
    42    15    31    1
    43    15    17    1
    44     4     3   ar
    45     4    34    1
    46    24    42    1
    47    18    38    1
    48     3    33    1
    49    37    17    1
