@<TRIPOS>MOLECULE
9s-b3lyp.log
 46 49 0 0 0
SMALL
USER_CHARGES
****
Gaussian 16 #p b3lyp/6-311g(d,p) pop=(chelpg,readradii)
@<TRIPOS>ATOM
      1 C           1.8268    2.5979   -1.3417 C.ar    1  UNL1       -0.2990
      2 C           2.5973    2.3227   -0.2076 C.ar    1  UNL1        0.3905
      3 C           2.8395    3.3381    0.7248 C.ar    1  UNL1       -0.2063
      4 C           2.3069    4.6083    0.5281 C.ar    1  UNL1       -0.0643
      5 C           1.5138    4.8757   -0.5874 C.ar    1  UNL1       -0.1201
      6 C           1.2766    3.8656   -1.5173 C.ar    1  UNL1       -0.0291
      7 N           3.1884    1.0515    0.0038 N.pl3   1  UNL1       -0.5478
      8 C           2.6580   -0.1783   -0.2154 C.2     1  UNL1        0.4008
      9 C           3.3198   -1.3592   -0.2094 C.2     1  UNL1       -0.3596
     10 C           1.1809   -0.4790   -0.3933 C.3     1  UNL1        0.0138
     11 C           2.3933   -2.4667   -0.3962 C.2     1  UNL1        0.7747
     12 O           1.1267   -1.9066   -0.5402 O.3     1  UNL1       -0.4116
     13 BR          5.1705   -1.5931    0.0509 Br      1  UNL1       -0.0098
     14 O           2.5660   -3.6511   -0.4419 O.2     1  UNL1       -0.5328
     15 C           0.3124   -0.0411    0.8170 C.3     1  UNL1        0.3791
     16 C          -1.1823   -0.1392    0.5580 C.ar    1  UNL1       -0.0595
     17 O           0.7188   -0.7315    1.9930 O.3     1  UNL1       -0.6370
     18 C          -1.9944    0.9652    0.8320 C.ar    1  UNL1       -0.1296
     19 C          -3.3727    0.9077    0.6514 C.ar    1  UNL1       -0.0762
     20 C          -3.9912   -0.2632    0.1927 C.ar    1  UNL1        0.0269
     21 C          -3.1730   -1.3693   -0.0803 C.ar    1  UNL1       -0.1462
     22 C          -1.7943   -1.3114    0.0953 C.ar    1  UNL1       -0.0247
     23 C          -5.4622   -0.3309    0.0018 C.ar    1  UNL1        0.0785
     24 C          -6.3363    0.2798    0.9137 C.ar    1  UNL1       -0.1187
     25 C          -7.7157    0.2158    0.7353 C.ar    1  UNL1       -0.0925
     26 C          -8.2518   -0.4607   -0.3592 C.ar    1  UNL1       -0.0879
     27 C          -7.3957   -1.0726   -1.2734 C.ar    1  UNL1       -0.0790
     28 C          -6.0164   -1.0084   -1.0946 C.ar    1  UNL1       -0.1265
     29 H           0.7752   -0.0389   -1.3060 H       1  UNL1        0.0405
     30 H           0.5478    1.0066    1.0129 H       1  UNL1        0.0362
     31 H           1.6840    1.8383   -2.0998 H       1  UNL1        0.1477
     32 H           3.4337    3.1229    1.6062 H       1  UNL1        0.1307
     33 H           2.5027    5.3869    1.2563 H       1  UNL1        0.0988
     34 H           1.0922    5.8629   -0.7342 H       1  UNL1        0.1002
     35 H           0.6790    4.0674   -2.3989 H       1  UNL1        0.0926
     36 H           4.1451    1.0500    0.3347 H       1  UNL1        0.2781
     37 H           0.4526   -1.6554    1.9131 H       1  UNL1        0.3809
     38 H          -1.5434    1.8860    1.1876 H       1  UNL1        0.0778
     39 H          -3.9726    1.7886    0.8497 H       1  UNL1        0.0796
     40 H          -3.6231   -2.2965   -0.4161 H       1  UNL1        0.0975
     41 H          -1.1951   -2.1849   -0.1303 H       1  UNL1        0.0817
     42 H          -5.9330    0.7867    1.7831 H       1  UNL1        0.0919
     43 H          -8.3728    0.6869    1.4579 H       1  UNL1        0.0924
     44 H          -9.3258   -0.5112   -0.4979 H       1  UNL1        0.0866
     45 H          -7.8017   -1.5949   -2.1326 H       1  UNL1        0.0896
     46 H          -5.3612   -1.4690   -1.8252 H       1  UNL1        0.0909
@<TRIPOS>BOND
     1    35     6    1
     2    45    27    1
     3    31     1    1
     4    46    28    1
     5     6     1   ar
     6     6     5   ar
     7     1     2   ar
     8    29    10    1
     9    27    28   ar
    10    27    26   ar
    11    28    23   ar
    12    34     5    1
    13     5     4   ar
    14    12    11    1
    15    12    10    1
    16    44    26    1
    17    14    11    2
    18    40    21    1
    19    11     9    1
    20    10     8    1
    21    10    15    1
    22    26    25   ar
    23     8     9    2
    24     8     7    1
    25     9    13    1
    26     2     7    1
    27     2     3   ar
    28    41    22    1
    29    21    22   ar
    30    21    20   ar
    31    23    20    1
    32    23    24   ar
    33     7    36    1
    34    22    16   ar
    35    20    19   ar
    36     4     3   ar
    37     4    33    1
    38    16    15    1
    39    16    18   ar
    40    19    18   ar
    41    19    39    1
    42     3    32    1
    43    25    24   ar
    44    25    43    1
    45    15    30    1
    46    15    17    1
    47    18    38    1
    48    24    42    1
    49    37    17    1
