@<TRIPOS>MOLECULE
9x-b3lyp.log
 36 38 0 0 0
SMALL
USER_CHARGES
****
Gaussian 16 #p b3lyp/6-311g(d,p) pop=(chelpg,readradii)
@<TRIPOS>ATOM
      1 C           0.6391    2.3922   -1.1885 C.ar    1  UNL1       -0.2258
      2 C           1.2297    2.1851    0.0604 C.ar    1  UNL1        0.3226
      3 C           0.9097    3.0418    1.1166 C.ar    1  UNL1       -0.1423
      4 C           0.0026    4.0789    0.9238 C.ar    1  UNL1       -0.2062
      5 C          -0.6244    4.2789   -0.3110 C.ar    1  UNL1        0.1644
      6 C          -0.2862    3.4180   -1.3603 C.ar    1  UNL1       -0.1759
      7 N           2.1847    1.1512    0.2677 N.pl3   1  UNL1       -0.5726
      8 C           2.0887   -0.1500   -0.0969 C.2     1  UNL1        0.4219
      9 C           3.0695   -1.0828   -0.0688 C.2     1  UNL1       -0.3806
     10 C           0.8126   -0.8424   -0.5322 C.3     1  UNL1        0.0523
     11 C           2.5560   -2.3833   -0.4705 C.2     1  UNL1        0.8127
     12 O           1.2044   -2.2042   -0.7652 O.3     1  UNL1       -0.4733
     13 CL          4.7116   -0.8181    0.4023 Cl      1  UNL1       -0.0480
     14 O           3.0851   -3.4528   -0.5703 O.2     1  UNL1       -0.5267
     15 C          -1.6461    5.3729   -0.4993 C.3     1  UNL1       -0.1739
     16 C          -0.3102   -0.8081    0.5300 C.3     1  UNL1        0.3911
     17 C          -1.5638   -1.4515    0.0267 C.ar    1  UNL1        0.0156
     18 O           0.1371   -1.3554    1.7664 O.3     1  UNL1       -0.6029
     19 O          -2.7377   -0.9174    0.5152 O.2     1  UNL1       -0.2112
     20 C          -3.7432   -1.6595    0.0018 C.ar    1  UNL1        0.2384
     21 C          -3.2754   -2.6511   -0.7997 C.ar    1  UNL1       -0.2303
     22 C          -1.8491   -2.5121   -0.7794 C.ar    1  UNL1       -0.0945
     23 CL         -5.3357   -1.1995    0.4434 Cl      1  UNL1       -0.0835
     24 H           0.4282   -0.4414   -1.4723 H       1  UNL1        0.0401
     25 H          -0.5364    0.2378    0.7464 H       1  UNL1        0.0212
     26 H           0.9234    1.7745   -2.0321 H       1  UNL1        0.1360
     27 H           1.3632    2.8855    2.0891 H       1  UNL1        0.1224
     28 H          -0.2315    4.7355    1.7551 H       1  UNL1        0.1324
     29 H          -0.7351    3.5636   -2.3374 H       1  UNL1        0.1294
     30 H           3.0486    1.4112    0.7253 H       1  UNL1        0.3194
     31 H          -1.6470    5.7448   -1.5263 H       1  UNL1        0.0532
     32 H          -2.6553    5.0061   -0.2829 H       1  UNL1        0.0634
     33 H          -1.4545    6.2164    0.1674 H       1  UNL1        0.0570
     34 H           0.2369   -2.3089    1.6548 H       1  UNL1        0.3720
     35 H          -3.8653   -3.3791   -1.3310 H       1  UNL1        0.1445
     36 H          -1.1262   -3.1270   -1.2906 H       1  UNL1        0.1377
@<TRIPOS>BOND
     1    29     6    1
     2    26     1    1
     3    31    15    1
     4    24    10    1
     5     6     1   ar
     6     6     5   ar
     7    35    21    1
     8    36    22    1
     9     1     2   ar
    10    21    22   ar
    11    21    20   ar
    12    22    17   ar
    13    12    10    1
    14    12    11    1
    15    14    11    2
    16    10     8    1
    17    10    16    1
    18    15     5    1
    19    15    32    1
    20    15    33    1
    21    11     9    1
    22     5     4   ar
    23     8     9    2
    24     8     7    1
    25     9    13    1
    26    20    23    1
    27    20    19   ar
    28    17    19   ar
    29    17    16    1
    30     2     7    1
    31     2     3   ar
    32     7    30    1
    33    16    25    1
    34    16    18    1
    35     4     3   ar
    36     4    28    1
    37     3    27    1
    38    34    18    1
