@<TRIPOS>MOLECULE
10a-b3lyp.g09
 36 38 0 0 0
SMALL
USER_CHARGES

@<TRIPOS>ATOM
      1 C           2.1903   -0.2408    0.9838 C.ar    1  UNL1        0.0000
      2 C           2.2325    0.3669   -0.2748 C.ar    1  UNL1        0.0000
      3 C           3.1714   -0.0686   -1.2107 C.ar    1  UNL1        0.0000
      4 C           4.0538   -1.0980   -0.8903 C.ar    1  UNL1        0.0000
      5 C           4.0124   -1.7297    0.3555 C.ar    1  UNL1        0.0000
      6 C           3.0608   -1.2828    1.2815 C.ar    1  UNL1        0.0000
      7 N           1.3788    1.4568   -0.6120 N.pl3   1  UNL1        0.0000
      8 C           0.0884    1.6540   -0.2140 C.2     1  UNL1        0.0000
      9 C          -0.5147    2.8646   -0.0246 C.2     1  UNL1        0.0000
     10 C          -0.9600    0.6408   -0.0390 C.2     1  UNL1        0.0000
     11 C          -1.9071    2.6793    0.3364 C.2     1  UNL1        0.0000
     12 O          -2.1179    1.2874    0.3426 O.3     1  UNL1        0.0000
     13 CL          0.2344    4.4126   -0.1645 Cl      1  UNL1        0.0000
     14 O          -2.7833    3.4456    0.6141 O.2     1  UNL1        0.0000
     15 C          -0.9085   -0.6842   -0.2782 C.2     1  UNL1        0.0000
     16 C          -1.9597   -1.6908   -0.1972 C.ar    1  UNL1        0.0000
     17 C           4.9687   -2.8436    0.7056 C.3     1  UNL1        0.0000
     18 C          -1.6209   -3.0126   -0.5488 C.ar    1  UNL1        0.0000
     19 C          -2.5618   -4.0340   -0.5047 C.ar    1  UNL1        0.0000
     20 C          -3.8688   -3.7596   -0.1037 C.ar    1  UNL1        0.0000
     21 C          -4.2210   -2.4568    0.2507 C.ar    1  UNL1        0.0000
     22 C          -3.2848   -1.4302    0.2068 C.ar    1  UNL1        0.0000
     23 H           0.0614   -1.0564   -0.5837 H       1  UNL1        0.0000
     24 H           1.4800    0.1028    1.7262 H       1  UNL1        0.0000
     25 H           3.2026    0.3933   -2.1914 H       1  UNL1        0.0000
     26 H           4.7779   -1.4214   -1.6308 H       1  UNL1        0.0000
     27 H           3.0102   -1.7456    2.2619 H       1  UNL1        0.0000
     28 H           1.8531    2.3024   -0.9011 H       1  UNL1        0.0000
     29 H           5.6866   -2.5219    1.4671 H       1  UNL1        0.0000
     30 H           4.4388   -3.7122    1.1065 H       1  UNL1        0.0000
     31 H           5.5363   -3.1696   -0.1681 H       1  UNL1        0.0000
     32 H          -0.6052   -3.2319   -0.8616 H       1  UNL1        0.0000
     33 H          -2.2768   -5.0424   -0.7825 H       1  UNL1        0.0000
     34 H          -4.6065   -4.5532   -0.0678 H       1  UNL1        0.0000
     35 H          -5.2356   -2.2372    0.5637 H       1  UNL1        0.0000
     36 H          -3.5742   -0.4268    0.4828 H       1  UNL1        0.0000
@<TRIPOS>BOND
     1    25     3    1
     2    26     4    1
     3     3     4   ar
     4     3     2   ar
     5    28     7    1
     6     4     5   ar
     7    32    18    1
     8    33    19    1
     9     7     2    1
    10     7     8    1
    11    23    15    1
    12    18    19   ar
    13    18    16   ar
    14    19    20   ar
    15    15    16    1
    16    15    10    2
    17     2     1   ar
    18     8    10    1
    19     8     9    2
    20    16    22   ar
    21    31    17    1
    22    13     9    1
    23    20    34    1
    24    20    21   ar
    25    10    12    1
    26     9    11    1
    27    22    21   ar
    28    22    36    1
    29    21    35    1
    30    11    12    1
    31    11    14    2
    32     5    17    1
    33     5     6   ar
    34    17    30    1
    35    17    29    1
    36     1     6   ar
    37     1    24    1
    38     6    27    1
@<TRIPOS>SUBSTRUCTURE
1 UNL1 1 RESIDUE 4 A UNL1 0 ROOT