@<TRIPOS>MOLECULE
10b-b3lyp.g09
 36 38 0 0 0
SMALL
USER_CHARGES

@<TRIPOS>ATOM
      1 C          -0.5929    2.1344    1.1071 C.ar    1  UNL1        0.0000
      2 C          -1.1068    2.0690   -0.1904 C.ar    1  UNL1        0.0000
      3 C          -0.8080    3.0877   -1.0961 C.ar    1  UNL1        0.0000
      4 C          -0.0014    4.1539   -0.7072 C.ar    1  UNL1        0.0000
      5 C           0.5431    4.2218    0.5788 C.ar    1  UNL1        0.0000
      6 C           0.2311    3.1924    1.4747 C.ar    1  UNL1        0.0000
      7 N          -1.9828    1.0194   -0.5988 N.pl3   1  UNL1        0.0000
      8 C          -1.9367   -0.2892   -0.2214 C.2     1  UNL1        0.0000
      9 C          -3.0080   -1.1287   -0.1048 C.2     1  UNL1        0.0000
     10 C          -0.7413   -1.1147    0.0088 C.2     1  UNL1        0.0000
     11 C          -2.5655   -2.4576    0.2674 C.2     1  UNL1        0.0000
     12 O          -1.1595   -2.3813    0.3555 O.3     1  UNL1        0.0000
     13 CL         -4.6654   -0.7083   -0.3316 Cl      1  UNL1        0.0000
     14 O          -3.1495   -3.4746    0.5018 O.2     1  UNL1        0.0000
     15 C           0.5532   -0.7837   -0.1647 C.2     1  UNL1        0.0000
     16 C           1.7451   -1.6086   -0.0192 C.ar    1  UNL1        0.0000
     17 C           1.4562    5.3528    0.9838 C.3     1  UNL1        0.0000
     18 C           1.7175   -2.9285    0.4826 C.ar    1  UNL1        0.0000
     19 C           2.8755   -3.6799    0.6231 C.ar    1  UNL1        0.0000
     20 C           4.1103   -3.1426    0.2638 C.ar    1  UNL1        0.0000
     21 C           4.1780   -1.8464   -0.2376 C.ar    1  UNL1        0.0000
     22 C           3.0148   -1.0987   -0.3729 C.ar    1  UNL1        0.0000
     23 CL          3.1897    0.5334   -1.0218 Cl      1  UNL1        0.0000
     24 H           0.7253    0.2401   -0.4627 H       1  UNL1        0.0000
     25 H          -0.8417    1.3637    1.8269 H       1  UNL1        0.0000
     26 H          -1.2025    3.0389   -2.1051 H       1  UNL1        0.0000
     27 H           0.2169    4.9391   -1.4234 H       1  UNL1        0.0000
     28 H           0.6240    3.2265    2.4856 H       1  UNL1        0.0000
     29 H          -2.8924    1.3206   -0.9242 H       1  UNL1        0.0000
     30 H           1.3145    5.6227    2.0331 H       1  UNL1        0.0000
     31 H           2.5072    5.0708    0.8586 H       1  UNL1        0.0000
     32 H           1.2807    6.2440    0.3777 H       1  UNL1        0.0000
     33 H           0.7666   -3.3564    0.7623 H       1  UNL1        0.0000
     34 H           2.8122   -4.6888    1.0133 H       1  UNL1        0.0000
     35 H           5.0182   -3.7249    0.3695 H       1  UNL1        0.0000
     36 H           5.1265   -1.4118   -0.5253 H       1  UNL1        0.0000
@<TRIPOS>BOND
     1    26     3    1
     2    27     4    1
     3     3     4   ar
     4     3     2   ar
     5    23    22    1
     6    29     7    1
     7     4     5   ar
     8     7     8    1
     9     7     2    1
    10    36    21    1
    11    24    15    1
    12    22    21   ar
    13    22    16   ar
    14    13     9    1
    15    21    20   ar
    16     8     9    2
    17     8    10    1
    18     2     1   ar
    19    15    16    1
    20    15    10    2
    21     9    11    1
    22    16    18   ar
    23    10    12    1
    24    20    35    1
    25    20    19   ar
    26    11    12    1
    27    11    14    2
    28    32    17    1
    29    18    19   ar
    30    18    33    1
    31     5    17    1
    32     5     6   ar
    33    19    34    1
    34    31    17    1
    35    17    30    1
    36     1     6   ar
    37     1    25    1
    38     6    28    1
@<TRIPOS>SUBSTRUCTURE
1 UNL1 1 RESIDUE 4 A UNL1 0 ROOT