@<TRIPOS>MOLECULE
8a-b3lyp.g09
 25 26 0 0 0
SMALL
USER_CHARGES

@<TRIPOS>ATOM
      1 C          -1.9619   -0.4073   -1.2047 C.ar    1  UNL1        0.0350
      2 C          -1.2764   -0.5626    0.0006 C.ar    1  UNL1       -0.3729
      3 C          -1.9614   -0.4029    1.2055 C.ar    1  UNL1        0.0342
      4 C          -3.3173   -0.0858    1.2001 C.ar    1  UNL1       -0.2907
      5 C          -4.0175    0.0802   -0.0001 C.ar    1  UNL1        0.4572
      6 C          -3.3177   -0.0903   -1.2000 C.ar    1  UNL1       -0.2911
      7 C          -5.4793    0.4541   -0.0005 C.3     1  UNL1       -0.6019
      8 N           0.1167   -0.9071    0.0009 N.pl3   1  UNL1        0.1309
      9 C           1.1303   -0.0108    0.0002 C.2     1  UNL1       -1.0471
     10 C           2.4650   -0.2301    0.0002 C.2     1  UNL1        0.4964
     11 C           0.9224    1.4820   -0.0008 C.3     1  UNL1       -0.0993
     12 C           3.1898    1.0367   -0.0007 C.2     1  UNL1       -0.2266
     13 O           2.2340    2.0472   -0.0014 O.3     1  UNL1       -0.1317
     14 CL          3.2428   -1.7765    0.0010 Cl      1  UNL1        0.3239
     15 O           4.3642    1.2729   -0.0012 O.2     1  UNL1       -0.3216
     16 H          -1.4319   -0.5438   -2.1406 H       1  UNL1        0.1772
     17 H          -1.4311   -0.5361    2.1417 H       1  UNL1        0.1773
     18 H          -3.8389    0.0301    2.1443 H       1  UNL1        0.1796
     19 H          -3.8397    0.0223   -2.1444 H       1  UNL1        0.1796
     20 H          -5.6019    1.5425   -0.0028 H       1  UNL1        0.1781
     21 H          -5.9901    0.0656   -0.8841 H       1  UNL1        0.1463
     22 H          -5.9897    0.0693    0.8849 H       1  UNL1        0.1463
     23 H           0.3714   -1.8856    0.0013 H       1  UNL1        0.3033
     24 H           0.3837    1.8221   -0.8898 H       1  UNL1        0.2088
     25 H           0.3839    1.8235    0.8878 H       1  UNL1        0.2088
@<TRIPOS>BOND
     1    19     6    1
     2    16     1    1
     3     1     6   ar
     4     1     2   ar
     5     6     5   ar
     6    24    11    1
     7    21     7    1
     8    20     7    1
     9    13    11    1
    10    13    12    1
    11    15    12    2
    12    11     9    1
    13    11    25    1
    14    12    10    1
    15     7     5    1
    16     7    22    1
    17     5     4   ar
    18    10     9    2
    19    10    14    1
    20     9     8    1
    21     2     8    1
    22     2     3   ar
    23     8    23    1
    24     4     3   ar
    25     4    18    1
    26     3    17    1
@<TRIPOS>SUBSTRUCTURE
1 UNL1 1 RESIDUE 4 A UNL1 0 ROOT