@<TRIPOS>MOLECULE
8g-b3lyp.g09
 26 27 0 0 0
SMALL
USER_CHARGES

@<TRIPOS>ATOM
      1 C          -2.0441   -1.1811    1.0140 C.ar    1  UNL1        0.1217
      2 C          -1.3201   -0.4993    0.0272 C.ar    1  UNL1       -0.5315
      3 C          -2.0083    0.2839   -0.8961 C.ar    1  UNL1        0.1871
      4 C          -3.3957    0.4183   -0.8271 C.ar    1  UNL1        0.4419
      5 C          -4.1113   -0.2654    0.1595 C.ar    1  UNL1       -0.5845
      6 C          -3.4239   -1.0748    1.0744 C.ar    1  UNL1       -0.3133
      7 N           0.0973   -0.6468   -0.0412 N.pl3   1  UNL1        0.1190
      8 C           1.0090    0.3486    0.0579 C.2     1  UNL1       -0.5086
      9 C           2.3594    0.2661    0.0013 C.2     1  UNL1        0.2981
     10 C           0.6607    1.7941    0.3165 C.3     1  UNL1       -0.2772
     11 C           2.9602    1.5796    0.2151 C.2     1  UNL1        0.0768
     12 O           1.9126    2.4762    0.3977 O.3     1  UNL1       -0.1247
     13 BR          3.3608   -1.3082   -0.2637 Br      1  UNL1       -0.0890
     14 O           4.1056    1.9282    0.2479 O.2     1  UNL1       -0.3086
     15 O          -5.4623   -0.2160    0.3104 O.3     1  UNL1       -0.1499
     16 C          -6.2237    0.5784   -0.5926 C.3     1  UNL1       -0.3217
     17 H          -1.5165   -1.7916    1.7383 H       1  UNL1        0.1787
     18 H          -1.4658    0.7781   -1.6933 H       1  UNL1        0.1862
     19 H          -3.9004    1.0362   -1.5570 H       1  UNL1        0.1964
     20 H          -3.9922   -1.6002    1.8320 H       1  UNL1        0.2065
     21 H           0.4716   -1.5857   -0.0871 H       1  UNL1        0.3042
     22 H           0.0702    2.2403   -0.4863 H       1  UNL1        0.1797
     23 H           0.1181    1.9127    1.2593 H       1  UNL1        0.2130
     24 H          -6.1140    0.2251   -1.6232 H       1  UNL1        0.1590
     25 H          -7.2608    0.4675   -0.2818 H       1  UNL1        0.1815
     26 H          -5.9381    1.6339   -0.5329 H       1  UNL1        0.1593
@<TRIPOS>BOND
     1    18     3    1
     2    24    16    1
     3    19     4    1
     4     3     4   ar
     5     3     2   ar
     6     4     5   ar
     7    16    26    1
     8    16    25    1
     9    16    15    1
    10    22    10    1
    11    13     9    1
    12    21     7    1
    13     7     2    1
    14     7     8    1
    15     9     8    2
    16     9    11    1
    17     2     1   ar
    18     8    10    1
    19     5    15    1
    20     5     6   ar
    21    11    14    2
    22    11    12    1
    23    10    12    1
    24    10    23    1
    25     1     6   ar
    26     1    17    1
    27     6    20    1
@<TRIPOS>SUBSTRUCTURE
1 UNL1 1 RESIDUE 4 A UNL1 0 ROOT