@<TRIPOS>MOLECULE
9aa-b3lyp.g09
 38 39 0 0 0
SMALL
USER_CHARGES

@<TRIPOS>ATOM
      1 C           1.9881   -0.7986   -1.0696 C.ar    1  UNL1       -0.1992
      2 C           1.5584   -1.1265    0.2180 C.ar    1  UNL1        0.3125
      3 C           2.4932   -1.1712    1.2558 C.ar    1  UNL1       -0.1653
      4 C           3.8308   -0.8826    1.0066 C.ar    1  UNL1       -0.1843
      5 C           4.2719   -0.5200   -0.2714 C.ar    1  UNL1        0.1660
      6 C           3.3256   -0.4864   -1.3003 C.ar    1  UNL1       -0.1598
      7 N           0.2017   -1.4637    0.4985 N.pl3   1  UNL1       -0.5227
      8 C          -0.9096   -0.9027   -0.0614 C.2     1  UNL1        0.3405
      9 C          -2.1467   -1.4372   -0.1356 C.2     1  UNL1       -0.3194
     10 C          -1.0035    0.5313   -0.5454 C.3     1  UNL1       -0.0002
     11 C          -3.0905   -0.4684   -0.6976 C.2     1  UNL1        0.8378
     12 O          -2.3672    0.6769   -0.9677 O.3     1  UNL1       -0.4808
     13 CL         -2.6057   -3.0268    0.3670 Cl      1  UNL1       -0.0518
     14 O          -4.2601   -0.5651   -0.9351 O.2     1  UNL1       -0.5558
     15 C          -0.6481    1.5699    0.5455 C.3     1  UNL1        0.4562
     16 C          -0.9597    3.0178    0.1279 C.3     1  UNL1        0.3529
     17 O          -1.3640    1.3169    1.7501 O.3     1  UNL1       -0.6823
     18 C           5.7154   -0.1608   -0.5242 C.3     1  UNL1       -0.2186
     19 C          -0.3407    3.3851   -1.2287 C.3     1  UNL1       -0.3732
     20 C          -0.4930    3.9926    1.2188 C.3     1  UNL1       -0.2540
     21 H          -0.3707    0.7060   -1.4170 H       1  UNL1        0.1015
     22 H           0.4341    1.4789    0.7211 H       1  UNL1       -0.1041
     23 H           1.2884   -0.8150   -1.8965 H       1  UNL1        0.1069
     24 H           2.1680   -1.4295    2.2578 H       1  UNL1        0.1135
     25 H           4.5417   -0.9292    1.8250 H       1  UNL1        0.1275
     26 H           3.6402   -0.2348   -2.3078 H       1  UNL1        0.1252
     27 H           0.0504   -2.3716    0.9203 H       1  UNL1        0.2860
     28 H          -2.0489    3.0846    0.0429 H       1  UNL1       -0.0151
     29 H          -1.0568    0.4921    2.1399 H       1  UNL1        0.3794
     30 H           5.9921   -0.3320   -1.5667 H       1  UNL1        0.0643
     31 H           5.9005    0.8964   -0.3050 H       1  UNL1        0.0752
     32 H           6.3883   -0.7470    0.1058 H       1  UNL1        0.0657
     33 H           0.7432    3.2211   -1.2333 H       1  UNL1        0.0446
     34 H          -0.7800    2.8206   -2.0543 H       1  UNL1        0.0848
     35 H          -0.5093    4.4444   -1.4381 H       1  UNL1        0.0958
     36 H           0.5979    3.9690    1.3251 H       1  UNL1        0.0409
     37 H          -0.7782    5.0160    0.9600 H       1  UNL1        0.0514
     38 H          -0.9355    3.7476    2.1845 H       1  UNL1        0.0580
@<TRIPOS>BOND
     1    26     6    1
     2    34    19    1
     3    23     1    1
     4    30    18    1
     5    35    19    1
     6    21    10    1
     7     6     1   ar
     8     6     5   ar
     9    33    19    1
    10    19    16    1
    11     1     2   ar
    12    12    11    1
    13    12    10    1
    14    14    11    2
    15    11     9    1
    16    10     8    1
    17    10    15    1
    18    18    31    1
    19    18     5    1
    20    18    32    1
    21     5     4   ar
    22     9     8    2
    23     9    13    1
    24     8     7    1
    25    28    16    1
    26    16    15    1
    27    16    20    1
    28     2     7    1
    29     2     3   ar
    30     7    27    1
    31    15    22    1
    32    15    17    1
    33    37    20    1
    34     4     3   ar
    35     4    25    1
    36    20    36    1
    37    20    38    1
    38     3    24    1
    39    17    29    1
@<TRIPOS>SUBSTRUCTURE
1 UNL1 1 RESIDUE 4 A UNL1 0 ROOT