@<TRIPOS>MOLECULE
9b-b3lyp.g09
 39 41 0 0 0
SMALL
USER_CHARGES

@<TRIPOS>ATOM
      1 C          -2.5431    3.3939   -0.6088 C.ar    1  UNL1        0.0000
      2 C          -1.8241    2.7028   -1.5881 C.ar    1  UNL1        0.0000
      3 C          -0.5441    2.2125   -1.3411 C.ar    1  UNL1        0.0000
      4 C           0.0367    2.3788   -0.0821 C.ar    1  UNL1        0.0000
      5 C          -0.6657    3.0752    0.9055 C.ar    1  UNL1        0.0000
      6 C          -1.9317    3.5825    0.6364 C.ar    1  UNL1        0.0000
      7 C          -3.9381    3.9030   -0.8751 C.3     1  UNL1        0.0000
      8 N           1.3461    1.9057    0.2064 N.pl3   1  UNL1        0.0000
      9 C           1.8930    0.7091   -0.1191 C.2     1  UNL1        0.0000
     10 C           1.1160   -0.5252   -0.5358 C.3     1  UNL1        0.0000
     11 O           2.1259   -1.5294   -0.7307 O.3     1  UNL1        0.0000
     12 C           3.3883   -1.0293   -0.4099 C.2     1  UNL1        0.0000
     13 C           3.2007    0.3658   -0.0467 C.2     1  UNL1        0.0000
     14 O           4.3689   -1.7141   -0.4679 O.2     1  UNL1        0.0000
     15 CL          4.4993    1.4014    0.4329 Cl      1  UNL1        0.0000
     16 C           0.0991   -0.9974    0.5354 C.3     1  UNL1        0.0000
     17 O           0.7746   -1.4048    1.7177 O.3     1  UNL1        0.0000
     18 C          -0.8739   -2.0586    0.0370 C.ar    1  UNL1        0.0000
     19 C          -2.1900   -2.1149    0.5198 C.ar    1  UNL1        0.0000
     20 C          -3.0847   -3.0984    0.1081 C.ar    1  UNL1        0.0000
     21 C          -2.6726   -4.0651   -0.8038 C.ar    1  UNL1        0.0000
     22 C          -1.3712   -4.0405   -1.2965 C.ar    1  UNL1        0.0000
     23 C          -0.4881   -3.0490   -0.8784 C.ar    1  UNL1        0.0000
     24 CL         -2.7801   -0.9323    1.6882 Cl      1  UNL1        0.0000
     25 H           0.6027   -0.3822   -1.4885 H       1  UNL1        0.0000
     26 H          -0.4784   -0.1225    0.8313 H       1  UNL1        0.0000
     27 H          -2.2599    2.5622   -2.5717 H       1  UNL1        0.0000
     28 H           0.0109    1.7314   -2.1374 H       1  UNL1        0.0000
     29 H          -0.2210    3.2074    1.8858 H       1  UNL1        0.0000
     30 H          -2.4596    4.1222    1.4157 H       1  UNL1        0.0000
     31 H          -4.1218    4.0202   -1.9451 H       1  UNL1        0.0000
     32 H          -4.6890    3.2069   -0.4861 H       1  UNL1        0.0000
     33 H          -4.1092    4.8691   -0.3939 H       1  UNL1        0.0000
     34 H           1.9732    2.5565    0.6609 H       1  UNL1        0.0000
     35 H           1.2848   -2.1993    1.5160 H       1  UNL1        0.0000
     36 H          -4.0920   -3.1027    0.5045 H       1  UNL1        0.0000
     37 H          -3.3689   -4.8323   -1.1224 H       1  UNL1        0.0000
     38 H          -1.0393   -4.7913   -2.0039 H       1  UNL1        0.0000
     39 H           0.5245   -3.0460   -1.2609 H       1  UNL1        0.0000
@<TRIPOS>BOND
     1    27     2    1
     2    28     3    1
     3    38    22    1
     4    31     7    1
     5     2     3   ar
     6     2     1   ar
     7    25    10    1
     8     3     4   ar
     9    22    23   ar
    10    22    21   ar
    11    39    23    1
    12    37    21    1
    13    23    18   ar
    14     7     1    1
    15     7    32    1
    16     7    33    1
    17    21    20   ar
    18    11    10    1
    19    11    12    1
    20     1     6   ar
    21    10     9    1
    22    10    16    1
    23    14    12    2
    24    12    13    1
    25     9    13    2
    26     9     8    1
    27     4     8    1
    28     4     5   ar
    29    13    15    1
    30    18    19   ar
    31    18    16    1
    32    20    36    1
    33    20    19   ar
    34     8    34    1
    35    19    24    1
    36    16    26    1
    37    16    17    1
    38     6     5   ar
    39     6    30    1
    40     5    29    1
    41    35    17    1
@<TRIPOS>SUBSTRUCTURE
1 UNL1 1 RESIDUE 4 A UNL1 0 ROOT