@<TRIPOS>MOLECULE
9e-b3lyp.g09
 45 48 0 0 0
SMALL
USER_CHARGES

@<TRIPOS>ATOM
      1 C           1.2510    2.3815   -1.2864 C.ar    1  UNL1        0.0000
      2 C           2.0023    2.0563   -0.1546 C.ar    1  UNL1        0.0000
      3 C           2.2648    3.0487    0.7944 C.ar    1  UNL1        0.0000
      4 C           1.7709    4.3365    0.6156 C.ar    1  UNL1        0.0000
      5 C           0.9870    4.6693   -0.4951 C.ar    1  UNL1        0.0000
      6 C           0.7405    3.6679   -1.4392 C.ar    1  UNL1        0.0000
      7 N           2.5519    0.7597    0.0330 N.pl3   1  UNL1        0.0000
      8 C           1.9568   -0.4413   -0.1697 C.2     1  UNL1        0.0000
      9 C           2.5551   -1.6559   -0.1904 C.2     1  UNL1        0.0000
     10 C           0.4623   -0.6617   -0.3125 C.3     1  UNL1        0.0000
     11 C           1.5676   -2.7108   -0.3628 C.2     1  UNL1        0.0000
     12 O           0.3273   -2.0830   -0.4676 O.3     1  UNL1        0.0000
     13 BR          4.3990   -1.9860    0.0087 Br      1  UNL1        0.0000
     14 O           1.6754   -3.9020   -0.4264 O.2     1  UNL1        0.0000
     15 C          -0.3485   -0.1853    0.9183 C.3     1  UNL1        0.0000
     16 C          -1.8563   -0.1757    0.7159 C.ar    1  UNL1        0.0000
     17 O           0.0305   -0.9179    2.0796 O.3     1  UNL1        0.0000
     18 C           0.4124    6.0551   -0.6572 C.3     1  UNL1        0.0000
     19 C          -2.6138    0.7356    1.5023 C.ar    1  UNL1        0.0000
     20 C          -3.9808    0.7886    1.4079 C.ar    1  UNL1        0.0000
     21 C          -4.6837   -0.0695    0.5214 C.ar    1  UNL1        0.0000
     22 C          -3.9333   -0.9944   -0.2685 C.ar    1  UNL1        0.0000
     23 C          -2.5181   -1.0236   -0.1462 C.ar    1  UNL1        0.0000
     24 C          -6.0965   -0.0427    0.3925 C.ar    1  UNL1        0.0000
     25 C          -6.7390   -0.8933   -0.4757 C.ar    1  UNL1        0.0000
     26 C          -5.9972   -1.8113   -1.2560 C.ar    1  UNL1        0.0000
     27 C          -4.6272   -1.8605   -1.1541 C.ar    1  UNL1        0.0000
     28 H           0.0648   -0.1903   -1.2133 H       1  UNL1        0.0000
     29 H          -0.0340    0.8400    1.1260 H       1  UNL1        0.0000
     30 H           1.0907    1.6443   -2.0634 H       1  UNL1        0.0000
     31 H           2.8484    2.8055    1.6757 H       1  UNL1        0.0000
     32 H           1.9905    5.0928    1.3621 H       1  UNL1        0.0000
     33 H           0.1580    3.8996   -2.3248 H       1  UNL1        0.0000
     34 H           3.5228    0.7148    0.3151 H       1  UNL1        0.0000
     35 H          -0.3041   -1.8187    1.9864 H       1  UNL1        0.0000
     36 H           0.2340    6.2917   -1.7084 H       1  UNL1        0.0000
     37 H          -0.5456    6.1456   -0.1336 H       1  UNL1        0.0000
     38 H           1.0815    6.8151   -0.2473 H       1  UNL1        0.0000
     39 H          -2.0933    1.3948    2.1891 H       1  UNL1        0.0000
     40 H          -4.5427    1.4930    2.0127 H       1  UNL1        0.0000
     41 H          -1.9681   -1.7427   -0.7418 H       1  UNL1        0.0000
     42 H          -6.6642    0.6605    0.9931 H       1  UNL1        0.0000
     43 H          -7.8192   -0.8652   -0.5647 H       1  UNL1        0.0000
     44 H          -6.5156   -2.4786   -1.9351 H       1  UNL1        0.0000
     45 H          -4.0571   -2.5660   -1.7495 H       1  UNL1        0.0000
@<TRIPOS>BOND
     1    33     6    1
     2    30     1    1
     3    44    26    1
     4    45    27    1
     5    36    18    1
     6     6     1   ar
     7     6     5   ar
     8     1     2   ar
     9    26    27   ar
    10    26    25   ar
    11    28    10    1
    12    27    22   ar
    13    41    23    1
    14    18     5    1
    15    18    38    1
    16    18    37    1
    17    43    25    1
    18     5     4   ar
    19    25    24   ar
    20    12    11    1
    21    12    10    1
    22    14    11    2
    23    11     9    1
    24    10     8    1
    25    10    15    1
    26    22    23   ar
    27    22    21   ar
    28     9     8    2
    29     9    13    1
    30     8     7    1
    31     2     7    1
    32     2     3   ar
    33    23    16   ar
    34     7    34    1
    35    24    21   ar
    36    24    42    1
    37    21    20   ar
    38     4     3   ar
    39     4    32    1
    40    16    15    1
    41    16    19   ar
    42     3    31    1
    43    15    29    1
    44    15    17    1
    45    20    19   ar
    46    20    40    1
    47    19    39    1
    48    35    17    1
@<TRIPOS>SUBSTRUCTURE
1 UNL1 1 RESIDUE 4 A UNL1 0 ROOT