@<TRIPOS>MOLECULE
9f-b3lyp.g09
 42 45 0 0 0
SMALL
USER_CHARGES

@<TRIPOS>ATOM
      1 C          -2.1764    0.2300   -1.0816 C.ar    1  UNL1        0.0000
      2 C          -2.3718    1.0838    0.0085 C.ar    1  UNL1        0.0000
      3 C          -3.3194    0.7437    0.9808 C.ar    1  UNL1        0.0000
      4 C          -4.0524   -0.4331    0.8742 C.ar    1  UNL1        0.0000
      5 C          -3.8234   -1.2870   -0.2016 C.ar    1  UNL1        0.0000
      6 C          -2.8888   -0.9624   -1.1796 C.ar    1  UNL1        0.0000
      7 N          -1.6767    2.3091    0.1373 N.pl3   1  UNL1        0.0000
      8 C          -0.3778    2.5858   -0.1564 C.2     1  UNL1        0.0000
      9 C           0.1815    3.8134   -0.2419 C.2     1  UNL1        0.0000
     10 C           0.7293    1.5623   -0.3208 C.3     1  UNL1        0.0000
     11 C           1.6148    3.7093   -0.4845 C.2     1  UNL1        0.0000
     12 O           1.9057    2.3512   -0.5623 O.3     1  UNL1        0.0000
     13 CL         -0.6391    5.3229   -0.0609 Cl      1  UNL1        0.0000
     14 O           2.4598    4.5468   -0.6164 O.2     1  UNL1        0.0000
     15 C           0.9330    0.6743    0.9325 C.3     1  UNL1        0.0000
     16 C           1.8807   -0.4981    0.7300 C.ar    1  UNL1        0.0000
     17 O           1.2954    1.4729    2.0548 O.3     1  UNL1        0.0000
     18 BR         -4.8133   -2.9191   -0.3413 Br      1  UNL1        0.0000
     19 C           1.6702   -1.6537    1.5317 C.ar    1  UNL1        0.0000
     20 C           2.4996   -2.7419    1.4395 C.ar    1  UNL1        0.0000
     21 C           3.5976   -2.7468    0.5394 C.ar    1  UNL1        0.0000
     22 C           3.8224   -1.5884   -0.2671 C.ar    1  UNL1        0.0000
     23 C           2.9447   -0.4778   -0.1468 C.ar    1  UNL1        0.0000
     24 C           4.4757   -3.8541    0.4126 C.ar    1  UNL1        0.0000
     25 C           5.5294   -3.8172   -0.4696 C.ar    1  UNL1        0.0000
     26 C           5.7543   -2.6699   -1.2666 C.ar    1  UNL1        0.0000
     27 C           4.9202   -1.5818   -1.1674 C.ar    1  UNL1        0.0000
     28 H           0.5771    0.9252   -1.1939 H       1  UNL1        0.0000
     29 H          -0.0474    0.2670    1.1907 H       1  UNL1        0.0000
     30 H          -1.4926    0.5035   -1.8748 H       1  UNL1        0.0000
     31 H          -3.4737    1.3979    1.8317 H       1  UNL1        0.0000
     32 H          -4.7830   -0.6882    1.6306 H       1  UNL1        0.0000
     33 H          -2.7304   -1.6190   -2.0252 H       1  UNL1        0.0000
     34 H          -2.2187    3.1000    0.4605 H       1  UNL1        0.0000
     35 H           2.2093    1.7598    1.9358 H       1  UNL1        0.0000
     36 H           0.8384   -1.6663    2.2282 H       1  UNL1        0.0000
     37 H           2.3220   -3.6169    2.0561 H       1  UNL1        0.0000
     38 H           3.1388    0.3962   -0.7569 H       1  UNL1        0.0000
     39 H           4.3033   -4.7325    1.0257 H       1  UNL1        0.0000
     40 H           6.1950   -4.6686   -0.5571 H       1  UNL1        0.0000
     41 H           6.5902   -2.6525   -1.9566 H       1  UNL1        0.0000
     42 H           5.0921   -0.7006   -1.7766 H       1  UNL1        0.0000
@<TRIPOS>BOND
     1    33     6    1
     2    41    26    1
     3    30     1    1
     4    42    27    1
     5    26    27   ar
     6    26    25   ar
     7    28    10    1
     8     6     1   ar
     9     6     5   ar
    10    27    22   ar
    11     1     2   ar
    12    38    23    1
    13    14    11    2
    14    12    11    1
    15    12    10    1
    16    40    25    1
    17    11     9    1
    18    25    24   ar
    19    18     5    1
    20    10     8    1
    21    10    15    1
    22    22    23   ar
    23    22    21   ar
    24     9     8    2
    25     9    13    1
    26     5     4   ar
    27     8     7    1
    28    23    16   ar
    29     2     7    1
    30     2     3   ar
    31     7    34    1
    32    24    21   ar
    33    24    39    1
    34    21    20   ar
    35    16    15    1
    36    16    19   ar
    37     4     3   ar
    38     4    32    1
    39    15    29    1
    40    15    17    1
    41     3    31    1
    42    20    19   ar
    43    20    37    1
    44    19    36    1
    45    35    17    1
@<TRIPOS>SUBSTRUCTURE
1 UNL1 1 RESIDUE 4 A UNL1 0 ROOT