@<TRIPOS>MOLECULE
9h-b3lyp.g09
 40 42 0 0 0
SMALL
USER_CHARGES

@<TRIPOS>ATOM
      1 C          -1.8562    0.6863   -1.0591 C.ar    1  UNL1        0.0000
      2 C          -1.6919    1.5297    0.0440 C.ar    1  UNL1        0.0000
      3 C          -2.6880    1.5712    1.0265 C.ar    1  UNL1        0.0000
      4 C          -3.8244    0.7773    0.9167 C.ar    1  UNL1        0.0000
      5 C          -3.9577   -0.0797   -0.1726 C.ar    1  UNL1        0.0000
      6 C          -2.9798   -0.1300   -1.1607 C.ar    1  UNL1        0.0000
      7 N          -0.5712    2.3824    0.1773 N.pl3   1  UNL1        0.0000
      8 C           0.7296    2.1343   -0.1310 C.2     1  UNL1        0.0000
      9 C           1.7255    3.0466   -0.1991 C.2     1  UNL1        0.0000
     10 C           1.3453    0.7632   -0.3319 C.3     1  UNL1        0.0000
     11 C           3.0012    2.3949   -0.4621 C.2     1  UNL1        0.0000
     12 O           2.7356    1.0347   -0.5764 O.3     1  UNL1        0.0000
     13 CL          1.5642    4.7514    0.0313 Cl      1  UNL1        0.0000
     14 O           4.1086    2.8348   -0.5829 O.2     1  UNL1        0.0000
     15 C           1.1993   -0.1670    0.9040 C.3     1  UNL1        0.0000
     16 C           1.6128   -1.6047    0.6297 C.ar    1  UNL1        0.0000
     17 O           1.8574    0.4021    2.0291 O.3     1  UNL1        0.0000
     18 BR         -5.5082   -1.1926   -0.3166 Br      1  UNL1        0.0000
     19 C           0.7239   -2.6326    0.9387 C.ar    1  UNL1        0.0000
     20 C           1.0956   -3.9637    0.7315 C.ar    1  UNL1        0.0000
     21 C           2.3455   -4.2760    0.2217 C.ar    1  UNL1        0.0000
     22 C           3.2440   -3.2470   -0.0919 C.ar    1  UNL1        0.0000
     23 C           2.8797   -1.9141    0.1092 C.ar    1  UNL1        0.0000
     24 O           4.4460   -3.6441   -0.5948 O.3     1  UNL1        0.0000
     25 C           5.4088   -2.6508   -0.9335 C.3     1  UNL1        0.0000
     26 H           0.9522    0.2539   -1.2135 H       1  UNL1        0.0000
     27 H           0.1417   -0.1733    1.1728 H       1  UNL1        0.0000
     28 H          -1.1272    0.6831   -1.8591 H       1  UNL1        0.0000
     29 H          -2.5665    2.2192    1.8874 H       1  UNL1        0.0000
     30 H          -4.5896    0.8156    1.6810 H       1  UNL1        0.0000
     31 H          -3.0991   -0.7818   -2.0164 H       1  UNL1        0.0000
     32 H          -0.7560    3.3136    0.5270 H       1  UNL1        0.0000
     33 H           2.8101    0.3280    1.8982 H       1  UNL1        0.0000
     34 H          -0.2535   -2.4000    1.3464 H       1  UNL1        0.0000
     35 H           0.4024   -4.7612    0.9741 H       1  UNL1        0.0000
     36 H           2.6510   -5.3020    0.0560 H       1  UNL1        0.0000
     37 H           3.5592   -1.1147   -0.1486 H       1  UNL1        0.0000
     38 H           5.0341   -1.9794   -1.7126 H       1  UNL1        0.0000
     39 H           5.7017   -2.0637   -0.0569 H       1  UNL1        0.0000
     40 H           6.2737   -3.1945   -1.3092 H       1  UNL1        0.0000
@<TRIPOS>BOND
     1    31     6    1
     2    28     1    1
     3    38    25    1
     4    40    25    1
     5    26    10    1
     6     6     1   ar
     7     6     5   ar
     8     1     2   ar
     9    25    24    1
    10    25    39    1
    11    24    22    1
    12    14    11    2
    13    12    11    1
    14    12    10    1
    15    11     9    1
    16    10     8    1
    17    10    15    1
    18    18     5    1
    19     9     8    2
    20     9    13    1
    21     5     4   ar
    22    37    23    1
    23     8     7    1
    24    22    23   ar
    25    22    21   ar
    26     2     7    1
    27     2     3   ar
    28    36    21    1
    29    23    16   ar
    30     7    32    1
    31    21    20   ar
    32    16    15    1
    33    16    19   ar
    34    20    19   ar
    35    20    35    1
    36    15    27    1
    37    15    17    1
    38     4     3   ar
    39     4    30    1
    40    19    34    1
    41     3    29    1
    42    33    17    1
@<TRIPOS>SUBSTRUCTURE
1 UNL1 1 RESIDUE 4 A UNL1 0 ROOT