@<TRIPOS>MOLECULE
9k-b3lyp.g09
 43 45 0 0 0
SMALL
USER_CHARGES

@<TRIPOS>ATOM
      1 C          -2.8641   -0.0827   -1.0719 C.ar    1  UNL1        0.0000
      2 C          -2.6932    0.6431    0.1085 C.ar    1  UNL1        0.0000
      3 C          -3.5169    0.3620    1.2042 C.ar    1  UNL1        0.0000
      4 C          -4.4840   -0.6319    1.1158 C.ar    1  UNL1        0.0000
      5 C          -4.6501   -1.3874   -0.0521 C.ar    1  UNL1        0.0000
      6 C          -3.8211   -1.0939   -1.1378 C.ar    1  UNL1        0.0000
      7 N          -1.7387    1.6875    0.2111 N.pl3   1  UNL1        0.0000
      8 C          -0.4563    1.6917   -0.2330 C.2     1  UNL1        0.0000
      9 C           0.3655    2.7608   -0.3415 C.2     1  UNL1        0.0000
     10 C           0.3591    0.4594   -0.5691 C.3     1  UNL1        0.0000
     11 C           1.6926    2.3435   -0.7760 C.2     1  UNL1        0.0000
     12 O           1.6381    0.9736   -0.9630 O.3     1  UNL1        0.0000
     13 CL         -0.0437    4.4025    0.0187 Cl      1  UNL1        0.0000
     14 O           2.6948    2.9735   -0.9752 O.2     1  UNL1        0.0000
     15 C           0.5077   -0.5169    0.6375 C.3     1  UNL1        0.0000
     16 C           1.3707   -1.7148    0.2641 C.ar    1  UNL1        0.0000
     17 O           0.9131    0.1610    1.8087 O.3     1  UNL1        0.0000
     18 C          -5.7050   -2.4636   -0.1348 C.3     1  UNL1        0.0000
     19 C           0.7569   -2.8690   -0.2219 C.ar    1  UNL1        0.0000
     20 C           1.4959   -3.9750   -0.6400 C.ar    1  UNL1        0.0000
     21 C           2.8830   -3.9312   -0.5638 C.ar    1  UNL1        0.0000
     22 C           3.5252   -2.7986   -0.0650 C.ar    1  UNL1        0.0000
     23 C           2.7768   -1.6961    0.3508 C.ar    1  UNL1        0.0000
     24 O           3.3446   -0.5697    0.8829 O.3     1  UNL1        0.0000
     25 C           4.7265   -0.3004    0.6456 C.3     1  UNL1        0.0000
     26 H          -0.0444   -0.0962   -1.4180 H       1  UNL1        0.0000
     27 H          -0.4995   -0.8884    0.8434 H       1  UNL1        0.0000
     28 H          -2.2732    0.1576   -1.9474 H       1  UNL1        0.0000
     29 H          -3.3838    0.9145    2.1278 H       1  UNL1        0.0000
     30 H          -5.1115   -0.8344    1.9779 H       1  UNL1        0.0000
     31 H          -3.9366   -1.6483   -2.0635 H       1  UNL1        0.0000
     32 H          -2.0516    2.5484    0.6400 H       1  UNL1        0.0000
     33 H           1.8739    0.2705    1.7603 H       1  UNL1        0.0000
     34 H          -5.5918   -3.0626   -1.0404 H       1  UNL1        0.0000
     35 H          -5.6529   -3.1385    0.7243 H       1  UNL1        0.0000
     36 H          -6.7106   -2.0306   -0.1467 H       1  UNL1        0.0000
     37 H          -0.3270   -2.8988   -0.2771 H       1  UNL1        0.0000
     38 H           0.9920   -4.8576   -1.0155 H       1  UNL1        0.0000
     39 H           3.4763   -4.7805   -0.8831 H       1  UNL1        0.0000
     40 H           4.6049   -2.7811   -0.0000 H       1  UNL1        0.0000
     41 H           4.9503   -0.3553   -0.4228 H       1  UNL1        0.0000
     42 H           4.8948    0.7157    0.9967 H       1  UNL1        0.0000
     43 H           5.3667   -0.9912    1.2029 H       1  UNL1        0.0000
@<TRIPOS>BOND
     1    31     6    1
     2    28     1    1
     3    26    10    1
     4     6     1   ar
     5     6     5   ar
     6     1     2   ar
     7    34    18    1
     8    38    20    1
     9    14    11    2
    10    12    11    1
    11    12    10    1
    12    39    21    1
    13    11     9    1
    14    20    21   ar
    15    20    19   ar
    16    10     8    1
    17    10    15    1
    18    21    22   ar
    19    41    25    1
    20     9     8    2
    21     9    13    1
    22    37    19    1
    23     8     7    1
    24    19    16   ar
    25    36    18    1
    26    18     5    1
    27    18    35    1
    28    22    40    1
    29    22    23   ar
    30     5     4   ar
    31     2     7    1
    32     2     3   ar
    33     7    32    1
    34    16    23   ar
    35    16    15    1
    36    23    24    1
    37    15    27    1
    38    15    17    1
    39    25    24    1
    40    25    42    1
    41    25    43    1
    42     4     3   ar
    43     4    30    1
    44     3    29    1
    45    33    17    1
@<TRIPOS>SUBSTRUCTURE
1 UNL1 1 RESIDUE 4 A UNL1 0 ROOT