@<TRIPOS>MOLECULE
9l-b3lyp.g09
 49 52 0 0 0
SMALL
USER_CHARGES

@<TRIPOS>ATOM
      1 C           2.4545    2.0183   -1.2307 C.ar    1  UNL1       -0.2701
      2 C           3.1715    1.6364   -0.0943 C.ar    1  UNL1        0.3545
      3 C           3.4633    2.5969    0.8790 C.ar    1  UNL1       -0.1651
      4 C           3.0332    3.9096    0.7184 C.ar    1  UNL1       -0.1936
      5 C           2.2847    4.3005   -0.3980 C.ar    1  UNL1        0.2018
      6 C           2.0075    3.3301   -1.3656 C.ar    1  UNL1       -0.1762
      7 N           3.6577    0.3134    0.0762 N.pl3   1  UNL1       -0.5608
      8 C           3.0208   -0.8562   -0.1836 C.2     1  UNL1        0.3995
      9 C           3.5759   -2.0897   -0.2233 C.2     1  UNL1       -0.3430
     10 C           1.5248   -1.0199   -0.3700 C.3     1  UNL1        0.0186
     11 C           2.5585   -3.1047   -0.4506 C.2     1  UNL1        0.8216
     12 O           1.3454   -2.4317   -0.5706 O.3     1  UNL1       -0.4324
     13 CL          5.2506   -2.4602   -0.0042 Cl      1  UNL1       -0.0542
     14 O           2.6301   -4.2970   -0.5418 O.2     1  UNL1       -0.5621
     15 C           0.6940   -0.5543    0.8560 C.3     1  UNL1        0.4620
     16 C          -0.8004   -0.4826    0.5864 C.ar    1  UNL1       -0.0925
     17 O           1.0141   -1.3401    1.9986 O.3     1  UNL1       -0.6678
     18 C           1.7806    5.7155   -0.5424 C.3     1  UNL1       -0.2234
     19 C          -1.5028    0.6661    0.9625 C.ar    1  UNL1       -0.1144
     20 C          -2.8777    0.7631    0.7744 C.ar    1  UNL1       -0.0882
     21 C          -3.6029   -0.2915    0.2032 C.ar    1  UNL1        0.0299
     22 C          -2.8951   -1.4430   -0.1708 C.ar    1  UNL1       -0.1500
     23 C          -1.5195   -1.5397    0.0141 C.ar    1  UNL1        0.0024
     24 C          -5.0705   -0.1910    0.0005 C.ar    1  UNL1        0.0948
     25 C          -5.8914    0.4100    0.9666 C.ar    1  UNL1       -0.1361
     26 C          -7.2673    0.5070    0.7763 C.ar    1  UNL1       -0.0674
     27 C          -7.8527    0.0050   -0.3849 C.ar    1  UNL1       -0.0928
     28 C          -7.0498   -0.5958   -1.3531 C.ar    1  UNL1       -0.0750
     29 C          -5.6740   -0.6930   -1.1622 C.ar    1  UNL1       -0.1304
     30 H           1.1620   -0.5120   -1.2655 H       1  UNL1        0.0325
     31 H           1.0345    0.4521    1.1063 H       1  UNL1        0.0143
     32 H           2.2726    1.3048   -2.0249 H       1  UNL1        0.1553
     33 H           4.0202    2.3097    1.7644 H       1  UNL1        0.1226
     34 H           3.2753    4.6402    1.4833 H       1  UNL1        0.1221
     35 H           1.4520    3.6063   -2.2558 H       1  UNL1        0.1212
     36 H           4.6139    0.2208    0.3930 H       1  UNL1        0.3038
     37 H           0.6743   -2.2325    1.8601 H       1  UNL1        0.3788
     38 H           1.6357    5.9813   -1.5918 H       1  UNL1        0.0637
     39 H           0.8174    5.8428   -0.0362 H       1  UNL1        0.0722
     40 H           2.4769    6.4338   -0.1036 H       1  UNL1        0.0643
     41 H          -0.9667    1.4997    1.4048 H       1  UNL1        0.0759
     42 H          -3.3903    1.6765    1.0540 H       1  UNL1        0.0801
     43 H          -3.4305   -2.2850   -0.5947 H       1  UNL1        0.0959
     44 H          -1.0063   -2.4441   -0.2889 H       1  UNL1        0.0705
     45 H          -5.4512    0.7815    1.8851 H       1  UNL1        0.0954
     46 H          -7.8839    0.9668    1.5407 H       1  UNL1        0.0829
     47 H          -8.9240    0.0799   -0.5331 H       1  UNL1        0.0826
     48 H          -7.4942   -0.9832   -2.2632 H       1  UNL1        0.0874
     49 H          -5.0580   -1.1420   -1.9330 H       1  UNL1        0.0888
@<TRIPOS>BOND
     1    48    28    1
     2    35     6    1
     3    32     1    1
     4    49    29    1
     5    38    18    1
     6     6     1   ar
     7     6     5   ar
     8    28    29   ar
     9    28    27   ar
    10    30    10    1
    11     1     2   ar
    12    29    24   ar
    13    43    22    1
    14    12    11    1
    15    12    10    1
    16    18     5    1
    17    18    40    1
    18    18    39    1
    19    14    11    2
    20    47    27    1
    21    11     9    1
    22     5     4   ar
    23    27    26   ar
    24    10     8    1
    25    10    15    1
    26    44    23    1
    27     9     8    2
    28     9    13    1
    29     8     7    1
    30    22    23   ar
    31    22    21   ar
    32     2     7    1
    33     2     3   ar
    34    24    21    1
    35    24    25   ar
    36    23    16   ar
    37     7    36    1
    38    21    20   ar
    39    16    15    1
    40    16    19   ar
    41     4     3   ar
    42     4    34    1
    43    20    19   ar
    44    20    42    1
    45    26    25   ar
    46    26    46    1
    47    15    31    1
    48    15    17    1
    49     3    33    1
    50    19    41    1
    51    25    45    1
    52    37    17    1
@<TRIPOS>SUBSTRUCTURE
1 UNL1 1 RESIDUE 4 A UNL1 0 ROOT