@<TRIPOS>MOLECULE
9n-b3lyp.g09
 46 49 0 0 0
SMALL
USER_CHARGES

@<TRIPOS>ATOM
      1 C          -2.4604    2.2757    1.3301 C.ar    1  UNL1        0.0000
      2 C          -3.2127    1.9569    0.1949 C.ar    1  UNL1        0.0000
      3 C          -3.5315    2.9624   -0.7254 C.ar    1  UNL1        0.0000
      4 C          -3.0935    4.2661   -0.5151 C.ar    1  UNL1        0.0000
      5 C          -2.3183    4.5788    0.6012 C.ar    1  UNL1        0.0000
      6 C          -2.0046    3.5783    1.5188 C.ar    1  UNL1        0.0000
      7 N          -3.7071    0.6482   -0.0306 N.pl3   1  UNL1        0.0000
      8 C          -3.0929   -0.5421    0.1959 C.2     1  UNL1        0.0000
      9 C          -3.6751   -1.7630    0.1880 C.2     1  UNL1        0.0000
     10 C          -1.6009   -0.7457    0.3773 C.3     1  UNL1        0.0000
     11 C          -2.6798   -2.8087    0.3778 C.2     1  UNL1        0.0000
     12 O          -1.4538   -2.1677    0.5252 O.3     1  UNL1        0.0000
     13 CL         -5.3554   -2.0893   -0.0529 Cl      1  UNL1        0.0000
     14 O          -2.7790   -4.0015    0.4228 O.2     1  UNL1        0.0000
     15 C          -0.7603   -0.2525   -0.8313 C.3     1  UNL1        0.0000
     16 C           0.7364   -0.2396   -0.5666 C.ar    1  UNL1        0.0000
     17 O          -1.1101   -0.9768   -2.0053 O.3     1  UNL1        0.0000
     18 C           1.4711    0.9087   -0.8765 C.ar    1  UNL1        0.0000
     19 C           2.8492    0.9531   -0.6920 C.ar    1  UNL1        0.0000
     20 C           3.5455   -0.1560   -0.1927 C.ar    1  UNL1        0.0000
     21 C           2.8052   -1.3066    0.1153 C.ar    1  UNL1        0.0000
     22 C           1.4263   -1.3506   -0.0646 C.ar    1  UNL1        0.0000
     23 C           5.0168   -0.1129    0.0035 C.ar    1  UNL1        0.0000
     24 C           5.8493    0.5219   -0.9305 C.ar    1  UNL1        0.0000
     25 C           7.2289    0.5638   -0.7470 C.ar    1  UNL1        0.0000
     26 C           7.8065   -0.0283    0.3750 C.ar    1  UNL1        0.0000
     27 C           6.9919   -0.6627    1.3114 C.ar    1  UNL1        0.0000
     28 C           5.6124   -0.7048    1.1273 C.ar    1  UNL1        0.0000
     29 H          -1.2260   -0.2810    1.2909 H       1  UNL1        0.0000
     30 H          -1.0708    0.7741   -1.0345 H       1  UNL1        0.0000
     31 H          -2.2596    1.5208    2.0796 H       1  UNL1        0.0000
     32 H          -4.1111    2.7145   -1.6079 H       1  UNL1        0.0000
     33 H          -3.3485    5.0361   -1.2341 H       1  UNL1        0.0000
     34 H          -1.9696    5.5925    0.7579 H       1  UNL1        0.0000
     35 H          -1.4201    3.8134    2.4009 H       1  UNL1        0.0000
     36 H          -4.6554    0.5808   -0.3764 H       1  UNL1        0.0000
     37 H          -0.7802   -1.8792   -1.9175 H       1  UNL1        0.0000
     38 H           0.9586    1.7837   -1.2633 H       1  UNL1        0.0000
     39 H           3.3874    1.8665   -0.9185 H       1  UNL1        0.0000
     40 H           3.3169   -2.1889    0.4825 H       1  UNL1        0.0000
     41 H           0.8880   -2.2559    0.1876 H       1  UNL1        0.0000
     42 H           5.4146    0.9639   -1.8199 H       1  UNL1        0.0000
     43 H           7.8542    1.0513   -1.4867 H       1  UNL1        0.0000
     44 H           8.8807    0.0036    0.5177 H       1  UNL1        0.0000
     45 H           7.4301   -1.1197    2.1917 H       1  UNL1        0.0000
     46 H           4.9883   -1.1813    1.8748 H       1  UNL1        0.0000
@<TRIPOS>BOND
     1    17    37    1
     2    17    15    1
     3    42    24    1
     4    32     3    1
     5    43    25    1
     6    38    18    1
     7    33     4    1
     8    30    15    1
     9    24    25   ar
    10    24    23   ar
    11    39    19    1
    12    18    19   ar
    13    18    16   ar
    14    15    16    1
    15    15    10    1
    16    25    26   ar
    17     3     4   ar
    18     3     2   ar
    19    19    20   ar
    20    16    22   ar
    21     4     5   ar
    22    36     7    1
    23    20    23    1
    24    20    21   ar
    25    22    21   ar
    26    22    41    1
    27    13     9    1
    28     7     2    1
    29     7     8    1
    30    23    28   ar
    31    21    40    1
    32     9     8    2
    33     9    11    1
    34     2     1   ar
    35     8    10    1
    36    26    44    1
    37    26    27   ar
    38    10    12    1
    39    10    29    1
    40    11    14    2
    41    11    12    1
    42     5    34    1
    43     5     6   ar
    44    28    27   ar
    45    28    46    1
    46    27    45    1
    47     1     6   ar
    48     1    31    1
    49     6    35    1
@<TRIPOS>SUBSTRUCTURE
1 UNL1 1 RESIDUE 4 A UNL1 0 ROOT