@<TRIPOS>MOLECULE
9o-b3lyp.g09
 50 53 0 0 0
SMALL
USER_CHARGES

@<TRIPOS>ATOM
      1 C           2.5877    1.8502   -1.0720 C.ar    1  UNL1        0.0000
      2 C           3.1393    1.3684    0.1129 C.ar    1  UNL1        0.0000
      3 C           3.2539    2.2327    1.2098 C.ar    1  UNL1        0.0000
      4 C           2.8191    3.5448    1.1203 C.ar    1  UNL1        0.0000
      5 C           2.2382    4.0187   -0.0642 C.ar    1  UNL1        0.0000
      6 C           2.1220    3.1626   -1.1624 C.ar    1  UNL1        0.0000
      7 N           3.6253    0.0328    0.2202 N.pl3   1  UNL1        0.0000
      8 C           2.9804   -1.1029   -0.1415 C.2     1  UNL1        0.0000
      9 C           3.5131   -2.3387   -0.2867 C.2     1  UNL1        0.0000
     10 C           1.4851   -1.2181   -0.3612 C.3     1  UNL1        0.0000
     11 C           2.4811   -3.3069   -0.6211 C.2     1  UNL1        0.0000
     12 O           1.2814   -2.6009   -0.6955 O.3     1  UNL1        0.0000
     13 CL          5.1795   -2.7584   -0.0884 Cl      1  UNL1        0.0000
     14 O           2.5302   -4.4869   -0.8229 O.2     1  UNL1        0.0000
     15 C           0.6446   -0.8524    0.8913 C.3     1  UNL1        0.0000
     16 C          -0.8441   -0.7267    0.6105 C.ar    1  UNL1        0.0000
     17 O           0.9323   -1.7465    1.9604 O.3     1  UNL1        0.0000
     18 C          -1.5291    0.3996    1.0761 C.ar    1  UNL1        0.0000
     19 C          -2.8997    0.5398    0.8830 C.ar    1  UNL1        0.0000
     20 C          -3.6377   -0.4477    0.2164 C.ar    1  UNL1        0.0000
     21 C          -2.9472   -1.5762   -0.2493 C.ar    1  UNL1        0.0000
     22 C          -1.5761   -1.7160   -0.0586 C.ar    1  UNL1        0.0000
     23 C          -5.1012   -0.3038    0.0101 C.ar    1  UNL1        0.0000
     24 C          -5.9225    0.2230    1.0181 C.ar    1  UNL1        0.0000
     25 C          -7.2948    0.3580    0.8253 C.ar    1  UNL1        0.0000
     26 C          -7.8763   -0.0313   -0.3803 C.ar    1  UNL1        0.0000
     27 C          -7.0729   -0.5574   -1.3907 C.ar    1  UNL1        0.0000
     28 C          -5.7006   -0.6923   -1.1974 C.ar    1  UNL1        0.0000
     29 O           1.8264    5.3155   -0.0459 O.3     1  UNL1        0.0000
     30 C           1.2281    5.8590   -1.2176 C.3     1  UNL1        0.0000
     31 H           1.1474   -0.6179   -1.2087 H       1  UNL1        0.0000
     32 H           0.9994    0.1197    1.2381 H       1  UNL1        0.0000
     33 H           2.5358    1.2087   -1.9438 H       1  UNL1        0.0000
     34 H           3.6781    1.8643    2.1372 H       1  UNL1        0.0000
     35 H           2.9055    4.2199    1.9629 H       1  UNL1        0.0000
     36 H           1.6941    3.5040   -2.0950 H       1  UNL1        0.0000
     37 H           4.5925   -0.0842    0.4927 H       1  UNL1        0.0000
     38 H           0.5887   -2.6182    1.7295 H       1  UNL1        0.0000
     39 H          -0.9829    1.1814    1.5942 H       1  UNL1        0.0000
     40 H          -3.3983    1.4355    1.2356 H       1  UNL1        0.0000
     41 H          -3.4937   -2.3674   -0.7498 H       1  UNL1        0.0000
     42 H          -1.0763   -2.6013   -0.4325 H       1  UNL1        0.0000
     43 H          -5.4860    0.5048    1.9696 H       1  UNL1        0.0000
     44 H          -7.9120    0.7585    1.6220 H       1  UNL1        0.0000
     45 H          -8.9449    0.0727   -0.5303 H       1  UNL1        0.0000
     46 H          -7.5141   -0.8570   -2.3349 H       1  UNL1        0.0000
     47 H          -5.0834   -1.0824   -1.9988 H       1  UNL1        0.0000
     48 H           1.9259    5.8506   -2.0615 H       1  UNL1        0.0000
     49 H           0.3171    5.3151   -1.4884 H       1  UNL1        0.0000
     50 H           0.9742    6.8880   -0.9702 H       1  UNL1        0.0000
@<TRIPOS>BOND
     1    46    27    1
     2    36     6    1
     3    48    30    1
     4    47    28    1
     5    33     1    1
     6    49    30    1
     7    27    28   ar
     8    27    26   ar
     9    30    50    1
    10    30    29    1
    11    31    10    1
    12    28    23   ar
    13     6     1   ar
    14     6     5   ar
    15     1     2   ar
    16    14    11    2
    17    41    21    1
    18    12    11    1
    19    12    10    1
    20    11     9    1
    21    45    26    1
    22    42    22    1
    23    26    25   ar
    24    10     8    1
    25    10    15    1
    26     9     8    2
    27     9    13    1
    28    21    22   ar
    29    21    20   ar
    30     8     7    1
    31     5    29    1
    32     5     4   ar
    33    22    16   ar
    34    23    20    1
    35    23    24   ar
    36     2     7    1
    37     2     3   ar
    38    20    19   ar
    39     7    37    1
    40    16    15    1
    41    16    18   ar
    42    25    24   ar
    43    25    44    1
    44    19    18   ar
    45    19    40    1
    46    15    32    1
    47    15    17    1
    48    24    43    1
    49    18    39    1
    50     4     3   ar
    51     4    35    1
    52     3    34    1
    53    38    17    1
@<TRIPOS>SUBSTRUCTURE
1 UNL1 1 RESIDUE 4 A UNL1 0 ROOT