@<TRIPOS>MOLECULE
9s-b3lyp.g09
 46 49 0 0 0
SMALL
USER_CHARGES

@<TRIPOS>ATOM
      1 C          -1.8268    2.5979    1.3417 C.ar    1  UNL1        0.0000
      2 C          -2.5973    2.3227    0.2076 C.ar    1  UNL1        0.0000
      3 C          -2.8395    3.3381   -0.7248 C.ar    1  UNL1        0.0000
      4 C          -2.3069    4.6083   -0.5281 C.ar    1  UNL1        0.0000
      5 C          -1.5138    4.8757    0.5874 C.ar    1  UNL1        0.0000
      6 C          -1.2766    3.8656    1.5174 C.ar    1  UNL1        0.0000
      7 N          -3.1884    1.0515   -0.0038 N.pl3   1  UNL1        0.0000
      8 C          -2.6580   -0.1783    0.2155 C.2     1  UNL1        0.0000
      9 C          -3.3198   -1.3592    0.2094 C.2     1  UNL1        0.0000
     10 C          -1.1809   -0.4790    0.3933 C.3     1  UNL1        0.0000
     11 C          -2.3933   -2.4667    0.3963 C.2     1  UNL1        0.0000
     12 O          -1.1267   -1.9066    0.5402 O.3     1  UNL1        0.0000
     13 BR         -5.1705   -1.5931   -0.0509 Br      1  UNL1        0.0000
     14 O          -2.5660   -3.6511    0.4419 O.2     1  UNL1        0.0000
     15 C          -0.3124   -0.0411   -0.8170 C.3     1  UNL1        0.0000
     16 C           1.1823   -0.1392   -0.5580 C.ar    1  UNL1        0.0000
     17 O          -0.7188   -0.7315   -1.9930 O.3     1  UNL1        0.0000
     18 C           1.9944    0.9652   -0.8320 C.ar    1  UNL1        0.0000
     19 C           3.3727    0.9077   -0.6514 C.ar    1  UNL1        0.0000
     20 C           3.9912   -0.2632   -0.1927 C.ar    1  UNL1        0.0000
     21 C           3.1730   -1.3693    0.0803 C.ar    1  UNL1        0.0000
     22 C           1.7943   -1.3114   -0.0953 C.ar    1  UNL1        0.0000
     23 C           5.4622   -0.3309   -0.0018 C.ar    1  UNL1        0.0000
     24 C           6.3363    0.2798   -0.9137 C.ar    1  UNL1        0.0000
     25 C           7.7157    0.2158   -0.7353 C.ar    1  UNL1        0.0000
     26 C           8.2518   -0.4608    0.3592 C.ar    1  UNL1        0.0000
     27 C           7.3957   -1.0726    1.2734 C.ar    1  UNL1        0.0000
     28 C           6.0164   -1.0084    1.0946 C.ar    1  UNL1        0.0000
     29 H          -0.7751   -0.0389    1.3060 H       1  UNL1        0.0000
     30 H          -0.5477    1.0066   -1.0129 H       1  UNL1        0.0000
     31 H          -1.6840    1.8383    2.0998 H       1  UNL1        0.0000
     32 H          -3.4337    3.1229   -1.6062 H       1  UNL1        0.0000
     33 H          -2.5027    5.3869   -1.2563 H       1  UNL1        0.0000
     34 H          -1.0922    5.8630    0.7342 H       1  UNL1        0.0000
     35 H          -0.6790    4.0674    2.3989 H       1  UNL1        0.0000
     36 H          -4.1451    1.0500   -0.3347 H       1  UNL1        0.0000
     37 H          -0.4526   -1.6554   -1.9131 H       1  UNL1        0.0000
     38 H           1.5434    1.8860   -1.1876 H       1  UNL1        0.0000
     39 H           3.9726    1.7886   -0.8496 H       1  UNL1        0.0000
     40 H           3.6231   -2.2965    0.4161 H       1  UNL1        0.0000
     41 H           1.1951   -2.1849    0.1303 H       1  UNL1        0.0000
     42 H           5.9330    0.7867   -1.7831 H       1  UNL1        0.0000
     43 H           8.3728    0.6869   -1.4579 H       1  UNL1        0.0000
     44 H           9.3258   -0.5112    0.4979 H       1  UNL1        0.0000
     45 H           7.8017   -1.5949    2.1326 H       1  UNL1        0.0000
     46 H           5.3612   -1.4690    1.8252 H       1  UNL1        0.0000
@<TRIPOS>BOND
     1    17    37    1
     2    17    15    1
     3    42    24    1
     4    32     3    1
     5    43    25    1
     6    33     4    1
     7    38    18    1
     8    30    15    1
     9    24    25   ar
    10    24    23   ar
    11    39    19    1
    12    18    19   ar
    13    18    16   ar
    14    15    16    1
    15    15    10    1
    16    25    26   ar
    17     3     4   ar
    18     3     2   ar
    19    19    20   ar
    20    16    22   ar
    21     4     5   ar
    22    36     7    1
    23    20    23    1
    24    20    21   ar
    25    22    21   ar
    26    22    41    1
    27    13     9    1
    28     7     2    1
    29     7     8    1
    30    23    28   ar
    31    21    40    1
    32     2     1   ar
    33     9     8    2
    34     9    11    1
    35     8    10    1
    36    26    44    1
    37    26    27   ar
    38    10    12    1
    39    10    29    1
    40    11    14    2
    41    11    12    1
    42     5    34    1
    43     5     6   ar
    44    28    27   ar
    45    28    46    1
    46    27    45    1
    47     1     6   ar
    48     1    31    1
    49     6    35    1
@<TRIPOS>SUBSTRUCTURE
1 UNL1 1 RESIDUE 4 A UNL1 0 ROOT