@<TRIPOS>MOLECULE
9t-b3lyp.g09
 50 53 0 0 0
SMALL
USER_CHARGES

@<TRIPOS>ATOM
      1 C           1.8739    2.3066   -1.0782 C.ar    1  UNL1        0.0000
      2 C           2.5045    1.9071    0.0976 C.ar    1  UNL1        0.0000
      3 C           2.5213    2.7826    1.1915 C.ar    1  UNL1        0.0000
      4 C           1.9122    4.0239    1.1082 C.ar    1  UNL1        0.0000
      5 C           1.2522    4.4111   -0.0663 C.ar    1  UNL1        0.0000
      6 C           1.2346    3.5445   -1.1622 C.ar    1  UNL1        0.0000
      7 N           3.1641    0.6474    0.1983 N.pl3   1  UNL1        0.0000
      8 C           2.6669   -0.5661   -0.1394 C.2     1  UNL1        0.0000
      9 C           3.3487   -1.7288   -0.2755 C.2     1  UNL1        0.0000
     10 C           1.1949   -0.8679   -0.3484 C.3     1  UNL1        0.0000
     11 C           2.4406   -2.8211   -0.5870 C.2     1  UNL1        0.0000
     12 O           1.1613   -2.2699   -0.6587 O.3     1  UNL1        0.0000
     13 BR          5.2081   -1.9541   -0.0674 Br      1  UNL1        0.0000
     14 O           2.6301   -3.9894   -0.7737 O.2     1  UNL1        0.0000
     15 C           0.3177   -0.5868    0.9007 C.3     1  UNL1        0.0000
     16 C          -1.1749   -0.6510    0.6191 C.ar    1  UNL1        0.0000
     17 O           0.7151   -1.4191    1.9838 O.3     1  UNL1        0.0000
     18 C          -1.9893    0.4102    1.0248 C.ar    1  UNL1        0.0000
     19 C          -3.3663    0.3775    0.8273 C.ar    1  UNL1        0.0000
     20 C          -3.9801   -0.7240    0.2162 C.ar    1  UNL1        0.0000
     21 C          -3.1596   -1.7865   -0.1900 C.ar    1  UNL1        0.0000
     22 C          -1.7826   -1.7535    0.0048 C.ar    1  UNL1        0.0000
     23 C          -5.4496   -0.7654    0.0066 C.ar    1  UNL1        0.0000
     24 C          -6.3313   -0.3015    0.9943 C.ar    1  UNL1        0.0000
     25 C          -7.7093   -0.3411    0.7990 C.ar    1  UNL1        0.0000
     26 C          -8.2360   -0.8452   -0.3891 C.ar    1  UNL1        0.0000
     27 C          -7.3721   -1.3101   -1.3794 C.ar    1  UNL1        0.0000
     28 C          -5.9942   -1.2710   -1.1833 C.ar    1  UNL1        0.0000
     29 O           0.6691    5.6404   -0.0413 O.3     1  UNL1        0.0000
     30 C          -0.0170    6.0956   -1.2025 C.3     1  UNL1        0.0000
     31 H           0.7858   -0.3271   -1.2045 H       1  UNL1        0.0000
     32 H           0.5493    0.4276    1.2291 H       1  UNL1        0.0000
     33 H           1.8941    1.6609   -1.9481 H       1  UNL1        0.0000
     34 H           3.0069    2.4777    2.1117 H       1  UNL1        0.0000
     35 H           1.9212    4.7074    1.9484 H       1  UNL1        0.0000
     36 H           0.7495    3.8227   -2.0877 H       1  UNL1        0.0000
     37 H           4.1430    0.6583    0.4556 H       1  UNL1        0.0000
     38 H           0.4891   -2.3317    1.7667 H       1  UNL1        0.0000
     39 H          -1.5409    1.2772    1.4993 H       1  UNL1        0.0000
     40 H          -3.9684    1.2256    1.1331 H       1  UNL1        0.0000
     41 H          -3.6069   -2.6625   -0.6460 H       1  UNL1        0.0000
     42 H          -1.1810   -2.5921   -0.3244 H       1  UNL1        0.0000
     43 H          -5.9343    0.0690    1.9327 H       1  UNL1        0.0000
     44 H          -8.3727    0.0131    1.5803 H       1  UNL1        0.0000
     45 H          -9.3089   -0.8767   -0.5412 H       1  UNL1        0.0000
     46 H          -7.7712   -1.6979   -2.3101 H       1  UNL1        0.0000
     47 H          -5.3321   -1.6155   -1.9698 H       1  UNL1        0.0000
     48 H           0.6607    6.1776   -2.0588 H       1  UNL1        0.0000
     49 H          -0.8523    5.4346   -1.4564 H       1  UNL1        0.0000
     50 H          -0.4011    7.0824   -0.9512 H       1  UNL1        0.0000
@<TRIPOS>BOND
     1    46    27    1
     2    36     6    1
     3    48    30    1
     4    47    28    1
     5    33     1    1
     6    49    30    1
     7    27    28   ar
     8    27    26   ar
     9    31    10    1
    10    30    50    1
    11    30    29    1
    12    28    23   ar
    13     6     1   ar
    14     6     5   ar
    15     1     2   ar
    16    14    11    2
    17    12    11    1
    18    12    10    1
    19    41    21    1
    20    11     9    1
    21    45    26    1
    22    26    25   ar
    23    10     8    1
    24    10    15    1
    25    42    22    1
    26     9     8    2
    27     9    13    1
    28    21    22   ar
    29    21    20   ar
    30     8     7    1
    31     5    29    1
    32     5     4   ar
    33    22    16   ar
    34    23    20    1
    35    23    24   ar
    36     2     7    1
    37     2     3   ar
    38     7    37    1
    39    20    19   ar
    40    16    15    1
    41    16    18   ar
    42    25    24   ar
    43    25    44    1
    44    19    18   ar
    45    19    40    1
    46    15    32    1
    47    15    17    1
    48    24    43    1
    49    18    39    1
    50     4     3   ar
    51     4    35    1
    52     3    34    1
    53    38    17    1
@<TRIPOS>SUBSTRUCTURE
1 UNL1 1 RESIDUE 4 A UNL1 0 ROOT