@<TRIPOS>MOLECULE
9u-b3lyp.g09
 47 50 0 0 0
SMALL
USER_CHARGES

@<TRIPOS>ATOM
      1 C           1.8761    2.4387   -1.2838 C.ar    1  UNL1        0.0000
      2 C           2.5141    2.1122   -0.0862 C.ar    1  UNL1        0.0000
      3 C           2.5499    3.0568    0.9455 C.ar    1  UNL1        0.0000
      4 C           1.9538    4.3007    0.7883 C.ar    1  UNL1        0.0000
      5 C           1.2909    4.6098   -0.4018 C.ar    1  UNL1        0.0000
      6 C           1.2524    3.6744   -1.4366 C.ar    1  UNL1        0.0000
      7 N           3.1644    0.8567    0.0915 N.pl3   1  UNL1        0.0000
      8 C           2.6572   -0.3732   -0.1638 C.2     1  UNL1        0.0000
      9 C           3.3314   -1.5464   -0.2237 C.2     1  UNL1        0.0000
     10 C           1.1829   -0.6788   -0.3490 C.3     1  UNL1        0.0000
     11 C           2.4158   -2.6509   -0.4633 C.2     1  UNL1        0.0000
     12 O           1.1402   -2.0971   -0.5695 O.3     1  UNL1        0.0000
     13 BR          5.1896   -1.7692   -0.0041 Br      1  UNL1        0.0000
     14 O           2.5980   -3.8298   -0.5745 O.2     1  UNL1        0.0000
     15 C           0.3102   -0.3140    0.8819 C.3     1  UNL1        0.0000
     16 C          -1.1828   -0.3927    0.6069 C.ar    1  UNL1        0.0000
     17 O           0.7087   -1.0748    2.0159 O.3     1  UNL1        0.0000
     18 C          -1.9924    0.7012    0.9259 C.ar    1  UNL1        0.0000
     19 C          -3.3691    0.6601    0.7281 C.ar    1  UNL1        0.0000
     20 C          -3.9879   -0.4832    0.2051 C.ar    1  UNL1        0.0000
     21 C          -3.1722   -1.5791   -0.1130 C.ar    1  UNL1        0.0000
     22 C          -1.7954   -1.5375    0.0807 C.ar    1  UNL1        0.0000
     23 C          -5.4571   -0.5329   -0.0051 C.ar    1  UNL1        0.0000
     24 C          -6.3382    0.0274    0.9320 C.ar    1  UNL1        0.0000
     25 C          -7.7159   -0.0185    0.7354 C.ar    1  UNL1        0.0000
     26 C          -8.2431   -0.6264   -0.4028 C.ar    1  UNL1        0.0000
     27 C          -7.3799   -1.1881   -1.3422 C.ar    1  UNL1        0.0000
     28 C          -6.0023   -1.1419   -1.1452 C.ar    1  UNL1        0.0000
     29 O           0.7079    5.8415   -0.4929 O.3     1  UNL1        0.0000
     30 H           0.7736   -0.1910   -1.2363 H       1  UNL1        0.0000
     31 H           0.5453    0.7191    1.1429 H       1  UNL1        0.0000
     32 H           1.8810    1.7374   -2.1096 H       1  UNL1        0.0000
     33 H           3.0405    2.8068    1.8794 H       1  UNL1        0.0000
     34 H           1.9802    5.0363    1.5827 H       1  UNL1        0.0000
     35 H           0.7554    3.9143   -2.3715 H       1  UNL1        0.0000
     36 H           4.1434    0.8768    0.3475 H       1  UNL1        0.0000
     37 H           0.4697   -1.9973    1.8650 H       1  UNL1        0.0000
     38 H          -1.5408    1.6008    1.3317 H       1  UNL1        0.0000
     39 H          -3.9671    1.5331    0.9641 H       1  UNL1        0.0000
     40 H          -3.6232   -2.4862   -0.4990 H       1  UNL1        0.0000
     41 H          -1.1978   -2.4023   -0.1809 H       1  UNL1        0.0000
     42 H          -5.9420    0.4795    1.8342 H       1  UNL1        0.0000
     43 H          -8.3787    0.4122    1.4777 H       1  UNL1        0.0000
     44 H          -9.3157   -0.6630   -0.5557 H       1  UNL1        0.0000
     45 H          -7.7790   -1.6570   -2.2348 H       1  UNL1        0.0000
     46 H          -5.3411   -1.5623   -1.8945 H       1  UNL1        0.0000
     47 H           0.2795    5.9434   -1.3494 H       1  UNL1        0.0000
@<TRIPOS>BOND
     1    35     6    1
     2    45    27    1
     3    32     1    1
     4    46    28    1
     5     6     1   ar
     6     6     5   ar
     7    47    29    1
     8    27    28   ar
     9    27    26   ar
    10     1     2   ar
    11    30    10    1
    12    28    23   ar
    13    14    11    2
    14    12    11    1
    15    12    10    1
    16    44    26    1
    17    40    21    1
    18    29     5    1
    19    11     9    1
    20    26    25   ar
    21     5     4   ar
    22    10     8    1
    23    10    15    1
    24     9     8    2
    25     9    13    1
    26    41    22    1
    27     8     7    1
    28    21    22   ar
    29    21    20   ar
    30     2     7    1
    31     2     3   ar
    32    23    20    1
    33    23    24   ar
    34    22    16   ar
    35     7    36    1
    36    20    19   ar
    37    16    15    1
    38    16    18   ar
    39    19    18   ar
    40    19    39    1
    41    25    24   ar
    42    25    43    1
    43     4     3   ar
    44     4    34    1
    45    15    31    1
    46    15    17    1
    47    18    38    1
    48    24    42    1
    49     3    33    1
    50    37    17    1
@<TRIPOS>SUBSTRUCTURE
1 UNL1 1 RESIDUE 4 A UNL1 0 ROOT