@<TRIPOS>MOLECULE
9w-b3lyp.g09
 46 49 0 0 0
SMALL
USER_CHARGES

@<TRIPOS>ATOM
      1 C           2.9792    1.2508   -1.4258 C.ar    1  UNL1        0.0000
      2 C           3.5254    0.6542   -0.2876 C.ar    1  UNL1        0.0000
      3 C           4.2652    1.4380    0.6035 C.ar    1  UNL1        0.0000
      4 C           4.4409    2.7954    0.3604 C.ar    1  UNL1        0.0000
      5 C           3.8715    3.4159   -0.7584 C.ar    1  UNL1        0.0000
      6 C           3.1413    2.6173   -1.6429 C.ar    1  UNL1        0.0000
      7 N           3.3906   -0.7380   -0.0363 N.pl3   1  UNL1        0.0000
      8 C           2.2779   -1.5035   -0.1573 C.2     1  UNL1        0.0000
      9 C           2.2107   -2.8547   -0.1281 C.2     1  UNL1        0.0000
     10 C           0.8589   -0.9770   -0.2455 C.3     1  UNL1        0.0000
     11 C           0.8289   -3.3035   -0.2110 C.2     1  UNL1        0.0000
     12 O           0.0434   -2.1569   -0.3119 O.3     1  UNL1        0.0000
     13 CL          3.5498   -3.9381    0.0196 Cl      1  UNL1        0.0000
     14 O           0.3469   -4.3998   -0.2105 O.2     1  UNL1        0.0000
     15 C           4.0307    4.8985   -0.9886 C.3     1  UNL1        0.0000
     16 C           0.4403   -0.1227    0.9783 C.3     1  UNL1        0.0000
     17 C          -0.9244    0.4954    0.8040 C.ar    1  UNL1        0.0000
     18 O           0.5600   -0.8731    2.1817 O.3     1  UNL1        0.0000
     19 S          -1.2258    2.1004    1.4195 S.2     1  UNL1        0.0000
     20 C          -2.8880    2.0199    0.9636 C.ar    1  UNL1        0.0000
     21 C          -3.2116    0.8229    0.3712 C.ar    1  UNL1        0.0000
     22 C          -2.0712   -0.0428    0.2847 C.ar    1  UNL1        0.0000
     23 C          -4.5605    0.4704   -0.1202 C.ar    1  UNL1        0.0000
     24 C          -5.7122    0.9661    0.5098 C.ar    1  UNL1        0.0000
     25 C          -6.9808    0.6440    0.0369 C.ar    1  UNL1        0.0000
     26 C          -7.1272   -0.1895   -1.0712 C.ar    1  UNL1        0.0000
     27 C          -5.9923   -0.6970   -1.7011 C.ar    1  UNL1        0.0000
     28 C          -4.7229   -0.3700   -1.2318 C.ar    1  UNL1        0.0000
     29 H           0.6864   -0.4025   -1.1573 H       1  UNL1        0.0000
     30 H           1.1777    0.6772    1.0735 H       1  UNL1        0.0000
     31 H           2.4550    0.6483   -2.1576 H       1  UNL1        0.0000
     32 H           4.6919    0.9818    1.4901 H       1  UNL1        0.0000
     33 H           5.0210    3.3855    1.0624 H       1  UNL1        0.0000
     34 H           2.7079    3.0630   -2.5320 H       1  UNL1        0.0000
     35 H           4.2308   -1.2354    0.2283 H       1  UNL1        0.0000
     36 H           3.8120    5.1662   -2.0243 H       1  UNL1        0.0000
     37 H           3.3495    5.4701   -0.3493 H       1  UNL1        0.0000
     38 H           5.0466    5.2306   -0.7604 H       1  UNL1        0.0000
     39 H          -0.1629   -1.5117    2.2111 H       1  UNL1        0.0000
     40 H          -3.5274    2.8742    1.1253 H       1  UNL1        0.0000
     41 H          -2.1099   -1.0422   -0.1263 H       1  UNL1        0.0000
     42 H          -5.6125    1.5888    1.3918 H       1  UNL1        0.0000
     43 H          -7.8570    1.0343    0.5429 H       1  UNL1        0.0000
     44 H          -8.1155   -0.4449   -1.4363 H       1  UNL1        0.0000
     45 H          -6.0938   -1.3465   -2.5634 H       1  UNL1        0.0000
     46 H          -3.8495   -0.7592   -1.7424 H       1  UNL1        0.0000
@<TRIPOS>BOND
     1    45    27    1
     2    34     6    1
     3    31     1    1
     4    36    15    1
     5    46    28    1
     6    27    28   ar
     7    27    26   ar
     8     6     1   ar
     9     6     5   ar
    10    44    26    1
    11     1     2   ar
    12    28    23   ar
    13    29    10    1
    14    26    25   ar
    15    15    38    1
    16    15     5    1
    17    15    37    1
    18     5     4   ar
    19    12    10    1
    20    12    11    1
    21     2     7    1
    22     2     3   ar
    23    10     8    1
    24    10    16    1
    25    11    14    2
    26    11     9    1
    27     8     9    2
    28     8     7    1
    29     9    13    1
    30    41    22    1
    31    23    21    1
    32    23    24   ar
    33     7    35    1
    34    25    24   ar
    35    25    43    1
    36    22    21   ar
    37    22    17   ar
    38     4     3   ar
    39     4    33    1
    40    21    20   ar
    41    24    42    1
    42     3    32    1
    43    17    16    1
    44    17    19   ar
    45    20    40    1
    46    20    19   ar
    47    16    30    1
    48    16    18    1
    49    18    39    1
@<TRIPOS>SUBSTRUCTURE
1 UNL1 1 RESIDUE 4 A UNL1 0 ROOT