@<TRIPOS>MOLECULE
9y-b3lyp.g09
 41 43 0 0 0
SMALL
USER_CHARGES

@<TRIPOS>ATOM
      1 C          -1.2501    2.3430   -1.0363 C.ar    1  UNL1        0.2267
      2 C          -1.6879    1.5179    0.0149 C.ar    1  UNL1        0.5814
      3 C          -1.6475    1.9956    1.3376 C.ar    1  UNL1       -0.2725
      4 C          -1.1778    3.2873    1.5994 C.ar    1  UNL1       -0.1271
      5 C          -0.7677    4.0897    0.5399 C.ar    1  UNL1       -0.4331
      6 C          -0.7980    3.6390   -0.7767 C.ar    1  UNL1       -0.1880
      7 N          -2.2043    0.2288   -0.2806 N.pl3   1  UNL1        0.0725
      8 C          -1.6315   -0.9638    0.0115 C.2     1  UNL1       -1.2305
      9 C          -2.1559   -2.1964   -0.1663 C.2     1  UNL1       -0.1996
     10 C          -0.2187   -1.1359    0.5289 C.3     1  UNL1        0.4434
     11 C          -1.1906   -3.2212    0.2084 C.2     1  UNL1       -0.0962
     12 O          -0.0494   -2.5550    0.6345 O.3     1  UNL1       -0.0120
     13 CL         -3.7376   -2.5517   -0.7721 Cl      1  UNL1        0.3070
     14 O          -1.2634   -4.4171    0.2054 O.2     1  UNL1       -0.2974
     15 C           0.8548   -0.5037   -0.3894 C.3     1  UNL1       -0.2711
     16 C           2.2436   -0.8766    0.0084 C.ar    1  UNL1       -0.6558
     17 O           0.6548   -0.8333   -1.7645 O.3     1  UNL1       -0.0516
     18 O           3.1771    0.1283   -0.1685 O.2     1  UNL1        0.1360
     19 C           4.3734   -0.3932    0.1768 C.ar    1  UNL1       -0.1025
     20 C           4.2613   -1.6868    0.5731 C.ar    1  UNL1       -0.6864
     21 C           2.8670   -1.9986    0.4593 C.ar    1  UNL1        0.1023
     22 CL          5.7272    0.6582    0.0646 Cl      1  UNL1        0.4662
     23 O          -2.0765    1.1268    2.2874 O.3     1  UNL1       -0.0976
     24 O          -1.2861    1.7720   -2.2748 O.3     1  UNL1       -0.1576
     25 C          -0.9015    2.5601   -3.4044 C.3     1  UNL1       -0.2873
     26 C          -2.1264    1.5595    3.6463 C.3     1  UNL1       -0.2754
     27 H          -0.1157   -0.7108    1.5323 H       1  UNL1        0.2978
     28 H           0.7768    0.5805   -0.2548 H       1  UNL1        0.2106
     29 H          -1.1376    3.6683    2.6098 H       1  UNL1        0.1800
     30 H          -0.4094    5.0918    0.7455 H       1  UNL1        0.1907
     31 H          -0.4592    4.2829   -1.5754 H       1  UNL1        0.1810
     32 H          -3.0946    0.1836   -0.7593 H       1  UNL1        0.2941
     33 H          -0.0579   -0.2770   -2.1062 H       1  UNL1        0.3086
     34 H           5.0612   -2.3297    0.9004 H       1  UNL1        0.1961
     35 H           2.3870   -2.9383    0.6741 H       1  UNL1        0.2374
     36 H           0.1457    2.8672   -3.3327 H       1  UNL1        0.1684
     37 H          -1.0316    1.9136   -4.2700 H       1  UNL1        0.1817
     38 H          -1.5436    3.4397   -3.5049 H       1  UNL1        0.1574
     39 H          -1.1282    1.8027    4.0231 H       1  UNL1        0.1625
     40 H          -2.7865    2.4245    3.7605 H       1  UNL1        0.1520
     41 H          -2.5297    0.7178    4.2056 H       1  UNL1        0.1878
@<TRIPOS>BOND
     1    37    25    1
     2    38    25    1
     3    25    36    1
     4    25    24    1
     5    24     1    1
     6    33    17    1
     7    17    15    1
     8    31     6    1
     9     1     6   ar
    10     1     2   ar
    11     6     5   ar
    12    13     9    1
    13    32     7    1
    14    15    28    1
    15    15    16    1
    16    15    10    1
    17     7     8    1
    18     7     2    1
    19    18    16   ar
    20    18    19   ar
    21     9     8    2
    22     9    11    1
    23    16    21   ar
    24     8    10    1
    25     2     3   ar
    26    22    19    1
    27    19    20   ar
    28    14    11    2
    29    11    12    1
    30    21    20   ar
    31    21    35    1
    32    10    12    1
    33    10    27    1
    34     5    30    1
    35     5     4   ar
    36    20    34    1
    37     3     4   ar
    38     3    23    1
    39     4    29    1
    40    23    26    1
    41    26    40    1
    42    26    39    1
    43    26    41    1
@<TRIPOS>SUBSTRUCTURE
1 UNL1 1 RESIDUE 4 A UNL1 0 ROOT