@<TRIPOS>MOLECULE
9z-b3lyp.g09
 38 40 0 0 0
SMALL
USER_CHARGES

@<TRIPOS>ATOM
      1 C          -1.9845    4.0186    0.0319 C.ar    1  UNL1        0.3079
      2 C          -1.4614    3.3585   -1.0834 C.ar    1  UNL1       -0.2326
      3 C          -0.3357    2.5445   -0.9820 C.ar    1  UNL1        0.0410
      4 C           0.2799    2.3584    0.2553 C.ar    1  UNL1       -0.5088
      5 C          -0.2284    3.0114    1.3808 C.ar    1  UNL1        0.1149
      6 C          -1.3416    3.8360    1.2629 C.ar    1  UNL1       -0.3280
      7 C          -3.2131    4.8878   -0.0771 C.3     1  UNL1       -0.5950
      8 N           1.4655    1.5712    0.3816 N.pl3   1  UNL1        0.1281
      9 C           1.6721    0.3167   -0.0786 C.2     1  UNL1       -0.6038
     10 C           0.5834   -0.7074   -0.3500 C.3     1  UNL1       -0.2052
     11 O           1.2976   -1.8871   -0.7534 O.3     1  UNL1       -0.0728
     12 C           2.6758   -1.6690   -0.7136 C.2     1  UNL1        0.1337
     13 C           2.8664   -0.2921   -0.2886 C.2     1  UNL1        0.1823
     14 O           3.4550   -2.5349   -0.9934 O.2     1  UNL1       -0.2831
     15 BR          4.5634    0.4935   -0.0548 Br      1  UNL1       -0.0826
     16 C          -0.2751   -1.0650    0.8933 C.3     1  UNL1       -0.4435
     17 O           0.5488   -1.4214    1.9867 O.3     1  UNL1       -0.1010
     18 C          -1.2978   -2.1478    0.5559 C.ar    1  UNL1        0.6371
     19 C          -2.5402   -1.8921   -0.0435 C.ar    1  UNL1       -1.1115
     20 N          -3.4445   -2.7959   -0.3436 N.ar    1  UNL1        0.2382
     21 C          -3.1722   -4.0756   -0.0662 C.ar    1  UNL1       -0.1316
     22 C          -1.9807   -4.4695    0.5283 C.ar    1  UNL1       -0.4397
     23 C          -1.0447   -3.4900    0.8421 C.ar    1  UNL1        0.4063
     24 BR         -3.0378   -0.0726   -0.4875 Br      1  UNL1        0.0099
     25 H          -0.0736   -0.4076   -1.1689 H       1  UNL1        0.2787
     26 H          -0.8075   -0.1649    1.2034 H       1  UNL1        0.3281
     27 H          -1.9291    3.4932   -2.0530 H       1  UNL1        0.1885
     28 H           0.0755    2.0735   -1.8675 H       1  UNL1        0.1832
     29 H           0.2492    2.8655    2.3432 H       1  UNL1        0.1801
     30 H          -1.7228    4.3390    2.1455 H       1  UNL1        0.1977
     31 H          -3.4206    5.1560   -1.1148 H       1  UNL1        0.1449
     32 H          -4.0951    4.3692    0.3134 H       1  UNL1        0.1863
     33 H          -3.0992    5.8116    0.4959 H       1  UNL1        0.1461
     34 H           2.3039    2.0638    0.6646 H       1  UNL1        0.3220
     35 H           1.1982   -2.0728    1.6950 H       1  UNL1        0.2173
     36 H          -3.9405   -4.7955   -0.3285 H       1  UNL1        0.2002
     37 H          -1.7892   -5.5133    0.7436 H       1  UNL1        0.1916
     38 H          -0.1153   -3.7713    1.3203 H       1  UNL1        0.1749
@<TRIPOS>BOND
     1    27     2    1
     2    28     3    1
     3    25    10    1
     4    31     7    1
     5     2     3   ar
     6     2     1   ar
     7    14    12    2
     8     3     4   ar
     9    11    12    1
    10    11    10    1
    11    12    13    1
    12    24    19    1
    13    10     9    1
    14    10    16    1
    15    20    21   ar
    16    20    19   ar
    17    36    21    1
    18    13     9    2
    19    13    15    1
    20     9     8    1
    21     7     1    1
    22     7    32    1
    23     7    33    1
    24    21    22   ar
    25    19    18   ar
    26     1     6   ar
    27     4     8    1
    28     4     5   ar
    29     8    34    1
    30    22    37    1
    31    22    23   ar
    32    18    23   ar
    33    18    16    1
    34    23    38    1
    35    16    26    1
    36    16    17    1
    37     6     5   ar
    38     6    30    1
    39     5    29    1
    40    35    17    1
@<TRIPOS>SUBSTRUCTURE
1 UNL1 1 RESIDUE 4 A UNL1 0 ROOT